#	Name: ASD06300012
#	Creating user name:	WinNT
#	Creation time:	15. 06. 2019 21:05

#	Modifying user name:	WinNT
#	Modification time:	15. 06. 2019 21:05

#	Program:	/corina/corina34_cracker 3.40 0067  02.08.2006

@<TRIPOS>MOLECULE
ASD06300012
 289  295    0    0    0
SMALL
NO_CHARGES


@<TRIPOS>ATOM
   1 N1             2.7504   -17.9792    -4.6919 N.am    
   2 C2             6.0813   -19.2769   -34.5451 C.3     
   3 C3             4.8863   -18.9383   -33.6517 C.3     
   4 C4             3.8144   -19.9826   -33.8294 C.2     
   5 N5             4.3548   -17.6248   -34.0240 N.am    
   6 O6             2.7149   -19.6614   -34.2278 O.2     
   7 O7             5.6407   -19.4168   -35.8972 O.3     
   8 C8            -2.3480   -20.7585   -26.1280 C.3     
   9 C9            -1.1842   -20.6186   -27.1113 C.3     
  10 C10           -0.6229   -19.2224   -27.0300 C.2     
  11 N11           -1.6615   -20.8746   -28.4725 N.am    
  12 O12           -0.6218   -18.5112   -28.0124 O.2     
  13 N13           -4.4692   -23.7362   -25.1280 N.pl3   
  14 C14           -5.5149   -24.1041   -24.3149 C.2     
  15 N15           -6.0898   -23.2179   -23.5513 N.2     
  16 N16           -5.9544   -25.4068   -24.3073 N.pl3   
  17 C17           -2.8371   -22.2082   -26.1195 C.3     
  18 C18           -4.0009   -22.3481   -25.1362 C.3     
  19 C19            0.4233   -17.4068   -25.7866 C.3     
  20 C20            1.4281   -17.3337   -24.6659 C.2     
  21 N21           -0.1223   -18.7641   -25.8656 N.am    
  22 O22            1.6651   -18.3185   -23.9988 O.2     
  23 C23           -2.7279   -17.2662   -26.7344 C.ar    
  24 C24           -3.5906   -17.2511   -27.8144 C.ar    
  25 C25           -3.3770   -16.3693   -28.8573 C.ar    
  26 C26           -2.3010   -15.5023   -28.8200 C.ar    
  27 C27           -1.4380   -15.5178   -27.7402 C.ar    
  28 C28           -1.6516   -16.3996   -26.6973 C.ar    
  29 C29           -0.7114   -16.4157   -25.5197 C.3     
  30 C30            2.1316   -15.7858   -21.9911 C.3     
  31 C31            2.9561   -16.0722   -23.2477 C.3     
  32 C32            3.9397   -14.9522   -23.4693 C.2     
  33 N33            2.0633   -16.1741   -24.4048 N.am    
  34 O34            3.8318   -14.2336   -24.4403 O.2     
  35 C35            1.2701   -14.5421   -22.2189 C.3     
  36 C36            0.2130   -14.4452   -21.1170 C.3     
  37 C37            2.1561   -13.2951   -22.1868 C.3     
  38 C38            7.0110   -14.1381   -23.7357 C.3     
  39 C39            5.8956   -13.6604   -22.8037 C.3     
  40 C40            6.4888   -13.2441   -21.4824 C.2     
  41 N41            4.9393   -14.7492   -22.5883 N.am    
  42 O42            6.3596   -13.9556   -20.5086 O.2     
  43 C43            6.4220   -14.4678   -25.1087 C.3     
  44 C44            7.5207   -14.9384   -26.0267 C.2     
  45 O45            8.6623   -15.0035   -25.6225 O.2     
  46 N46            7.2345   -15.2867   -27.2968 N.am    
  47 C47            8.8690   -10.7174   -20.2826 C.3     
  48 C48            7.6591   -11.6316   -20.0797 C.3     
  49 C49            6.5717   -10.8741   -19.3623 C.2     
  50 N50            7.1629   -12.0813   -21.3827 N.am    
  51 O51            5.4889   -10.7245   -19.8876 O.2     
  52 C52            9.9848   -11.4968   -20.9295 C.2     
  53 C53           10.9826   -12.1359   -20.2987 C.2     
  54 N54           11.8065   -12.7325   -21.2138 N.pl3   
  55 C55           11.3474   -12.4856   -22.4881 C.ar    
  56 C56           10.1827   -11.7062   -22.3658 C.ar    
  57 C57           11.7959   -12.8467   -23.7546 C.ar    
  58 C58           11.1011   -12.4335   -24.8700 C.ar    
  59 C59            9.9557   -11.6591   -24.7442 C.ar    
  60 C60            9.4896   -11.3049   -23.5096 C.ar    
  61 C61            5.7590    -8.1646   -17.8911 C.3     
  62 C62            5.7455    -9.6263   -17.4394 C.3     
  63 C63            5.9825    -9.6948   -15.9527 C.2     
  64 N64            6.8026   -10.3627   -18.1368 N.am    
  65 O65            7.0574   -10.0601   -15.5262 O.2     
  66 C66            5.4244    -8.0885   -19.3822 C.3     
  67 C67            5.4379    -6.6267   -19.8339 C.3     
  68 C68            5.1034    -6.5506   -21.3249 C.3     
  69 N69            5.1164    -5.1472   -21.7587 N.3     
  70 C70            4.2911    -8.3456   -12.9828 C.3     
  71 C71            5.2610    -9.3188   -13.6559 C.3     
  72 C72            5.0687   -10.6982   -13.0804 C.2     
  73 N73            4.9998    -9.3501   -15.0971 N.am    
  74 O74            4.7453   -11.6171   -13.8030 O.2     
  75 C75            4.5251    -6.9550   -13.5144 C.2     
  76 C76            5.3278    -6.0208   -12.9807 C.2     
  77 N77            5.2860    -4.8820   -13.7381 N.pl3   
  78 C78            4.4337    -5.0603   -14.8047 C.ar    
  79 C79            3.9246    -6.3685   -14.7149 C.ar    
  80 C80            4.0335    -4.2439   -15.8578 C.ar    
  81 C81            3.1423    -4.7217   -16.7932 C.ar    
  82 C82            2.6379    -6.0115   -16.6967 C.ar    
  83 C83            3.0283    -6.8350   -15.6786 C.ar    
  84 C84            6.3595   -13.0574   -11.3674 C.3     
  85 C85            5.0691   -12.2519   -11.2034 C.3     
  86 C86            4.7279   -12.1424    -9.7396 C.2     
  87 N87            5.2561   -10.9109   -11.7628 N.am    
  88 O88            4.6487   -11.0517    -9.2153 O.2     
  89 C89            5.4680   -13.0451    -6.7725 C.3     
  90 C90            4.1791   -13.1503    -7.5901 C.3     
  91 C91            3.4102   -14.3732    -7.1607 C.2     
  92 N92            4.5108   -13.2567    -9.0131 N.am    
  93 O93            3.1636   -15.2475    -7.9642 O.2     
  94 C94            6.1869   -11.7398    -7.1192 C.3     
  95 C95            7.4564   -11.6362    -6.3139 C.2     
  96 O96            7.7556   -12.5161    -5.5418 O.2     
  97 O97            8.2549   -10.5664    -6.4543 O.3     
  98 C98            1.3878   -15.3434    -4.2487 C.3     
  99 C99            2.2492   -15.6841    -5.4664 C.3     
 100 C100           3.2147   -16.7839    -5.1069 C.2     
 101 N101           2.9967   -14.4953    -5.8838 N.am    
 102 O102           4.4095   -16.5935    -5.1911 O.2     
 103 N103          -1.5527   -12.9926    -3.8096 N.pl3   
 104 C104          -2.4486   -12.5325    -2.8738 C.2     
 105 N105          -3.3535   -11.6577    -3.2127 N.2     
 106 N106          -2.3902   -12.9953    -1.5805 N.pl3   
 107 C107           0.3257   -14.3165    -4.6465 C.3     
 108 C108          -0.5357   -13.9759    -3.4287 C.3     
 109 C109           3.3182   -23.4580   -32.8105 C.2     
 110 N110           4.0777   -21.2736   -33.5455 N.am    
 111 C111           3.0357   -22.2888   -33.7183 C.3     
 112 C112           3.0226   -22.7638   -35.1726 C.3     
 113 C113           2.6136   -21.6049   -36.0839 C.3     
 114 C114           2.6004   -22.0799   -37.5383 C.3     
 115 C115           2.1914   -20.9209   -38.4496 C.3     
 116 O116           4.4067   -23.5778   -32.3009 O.2     
 117 O117           5.8241   -16.5870   -32.7255 O.2     
 118 C118           4.8966   -16.5062   -33.5028 C.2     
 119 C119           4.3500   -15.1551   -33.8858 C.3     
 120 C120          -1.0719   -25.9014   -31.3702 C.3     
 121 C121          -1.0649   -24.4421   -30.9943 C.2     
 122 N122           0.2352   -26.2689   -31.9310 N.3     
 123 O123          -0.0334   -23.8066   -31.0497 O.2     
 124 C124          -0.4483   -29.0521   -30.5027 C.ar    
 125 C125          -0.6123   -30.3744   -30.8710 C.ar    
 126 C126          -1.8556   -30.8332   -31.2642 C.ar    
 127 C127          -2.9349   -29.9699   -31.2887 C.ar    
 128 C128          -2.7708   -28.6476   -30.9209 C.ar    
 129 C129          -1.5276   -28.1887   -30.5277 C.ar    
 130 C130          -1.3489   -26.7473   -30.1257 C.3     
 131 C131          -3.6513   -21.8744   -30.4828 C.3     
 132 C132          -2.2226   -22.4017   -30.3357 C.3     
 133 C133          -1.7316   -22.1384   -28.9355 C.2     
 134 N134          -2.2049   -23.8432   -30.5964 N.am    
 135 O135          -1.3995   -23.0637   -28.2253 O.2     
 136 C136          -4.1074   -22.0501   -31.9083 C.2     
 137 O137          -3.3984   -22.6201   -32.7035 O.2     
 138 O138          -5.3012   -21.5733   -32.2947 O.3     
 139 C139           2.5397   -25.6332   -31.6344 C.3     
 140 C140           2.2572   -24.4639   -32.5422 C.2     
 141 N141           1.2984   -26.0445   -30.9650 N.3     
 142 O142           1.1687   -24.3442   -33.0517 O.2     
 143 C143           2.6943   -28.9859   -31.3047 C.ar    
 144 C144           3.0993   -30.0007   -30.4579 C.ar    
 145 C145           4.3359   -29.9360   -29.8435 C.ar    
 146 C146           5.1677   -28.8567   -30.0761 C.ar    
 147 C147           4.7625   -27.8416   -30.9225 C.ar    
 148 C148           3.5259   -27.9063   -31.5369 C.ar    
 149 C149           3.0845   -26.8002   -32.4603 C.3     
 150 H150           1.7948   -18.1315    -4.6246 H       
 151 H151           3.3718   -18.6884    -4.4643 H       
 152 H152           6.8187   -18.4765   -34.4842 H       
 153 H153           6.5313   -20.2117   -34.2110 H       
 154 H154           5.2056   -18.9190   -32.6097 H       
 155 H155           3.6130   -17.5602   -34.6457 H       
 156 H156           6.3475   -19.6321   -36.5210 H       
 157 H157          -2.0140   -20.4819   -25.1279 H       
 158 H158          -3.1627   -20.1020   -26.4335 H       
 159 H159          -0.4059   -21.3384   -26.8578 H       
 160 H160          -1.9271   -20.1346   -29.0405 H       
 161 H161          -4.0414   -24.3957   -25.6963 H       
 162 H162          -6.8276   -23.4775   -22.9776 H       
 163 H163          -5.5266   -26.0663   -24.8756 H       
 164 H164          -6.6923   -25.6664   -23.7336 H       
 165 H165          -3.1711   -22.4849   -27.1195 H       
 166 H166          -2.0224   -22.8647   -25.8139 H       
 167 H167          -4.8156   -21.6916   -25.4417 H       
 168 H168          -3.6669   -22.0715   -24.1362 H       
 169 H169           0.9109   -17.1558   -26.7286 H       
 170 H170          -0.1232   -19.3329   -25.0799 H       
 171 H171          -2.8973   -17.9521   -25.9175 H       
 172 H172          -4.4313   -17.9284   -27.8435 H       
 173 H173          -4.0506   -16.3580   -29.7014 H       
 174 H174          -2.1337   -14.8138   -29.6352 H       
 175 H175          -0.5971   -14.8406   -27.7113 H       
 176 H176          -1.2551   -16.7184   -24.6248 H       
 177 H177          -0.2960   -15.4188   -25.3727 H       
 178 H178           1.4883   -16.6391   -21.7764 H       
 179 H179           2.8014   -15.6145   -21.1484 H       
 180 H180           3.4962   -17.0106   -23.1219 H       
 181 H181           1.9294   -15.4069   -24.9831 H       
 182 H182           0.7782   -14.6135   -23.1889 H       
 183 H183           0.7049   -14.3738   -20.1469 H       
 184 H184          -0.4007   -13.5591   -21.2792 H       
 185 H185          -0.4181   -15.3335   -21.1398 H       
 186 H186           2.7922   -13.3241   -21.3021 H       
 187 H187           2.7785   -13.2686   -23.0812 H       
 188 H188           1.5287   -12.4044   -22.1542 H       
 189 H189           7.7586   -13.3518   -23.8403 H       
 190 H190           7.4775   -15.0297   -23.3168 H       
 191 H191           5.3833   -12.8110   -23.2556 H       
 192 H192           5.0256   -15.3239   -21.8117 H       
 193 H193           5.6744   -15.2541   -25.0041 H       
 194 H194           5.9555   -13.5762   -25.5276 H       
 195 H195           6.3215   -15.2346   -27.6201 H       
 196 H196           7.9417   -15.5896   -27.8877 H       
 197 H197           8.5896    -9.8820   -20.9247 H       
 198 H198           9.2034   -10.3376   -19.3172 H       
 199 H199           7.9528   -12.4963   -19.4847 H       
 200 H200           7.3195   -11.5422   -22.1737 H       
 201 H201          11.1156   -12.1732   -19.2276 H       
 202 H202          12.5966   -13.2518   -20.9970 H       
 203 H203          12.6860   -13.4486   -23.8629 H       
 204 H204          11.4511   -12.7146   -25.8523 H       
 205 H205           9.4229   -11.3432   -25.6289 H       
 206 H206           8.5967   -10.7041   -23.4193 H       
 207 H207           5.0179    -7.6019   -17.3233 H       
 208 H208           6.7480    -7.7400   -17.7185 H       
 209 H209           4.7780   -10.0701   -17.6739 H       
 210 H210           7.6686   -10.4824   -17.7167 H       
 211 H211           6.1655    -8.6511   -19.9500 H       
 212 H212           4.4355    -8.5130   -19.5548 H       
 213 H213           4.6969    -6.0641   -19.2661 H       
 214 H214           6.4269    -6.2022   -19.6613 H       
 215 H215           5.8444    -7.1133   -21.8928 H       
 216 H216           4.1144    -6.9751   -21.4975 H       
 217 H217           4.8982    -5.0702   -22.7408 H       
 218 H218           4.4838    -4.5911   -21.2031 H       
 219 H219           3.2660    -8.6485   -13.1963 H       
 220 H220           4.4559    -8.3553   -11.9054 H       
 221 H221           6.2855    -8.9910   -13.4794 H       
 222 H222           4.1197    -9.1228   -15.4355 H       
 223 H223           5.9186    -6.1488   -12.0857 H       
 224 H224           5.7826    -4.0699   -13.5513 H       
 225 H225           4.4199    -3.2389   -15.9414 H       
 226 H226           2.8326    -4.0863   -17.6098 H       
 227 H227           1.9397    -6.3706   -17.4383 H       
 228 H228           2.6333    -7.8379   -15.6111 H       
 229 H229           6.2204   -14.0551   -10.9512 H       
 230 H230           6.6063   -13.1365   -12.4261 H       
 231 H231           7.1712   -12.5543   -10.8418 H       
 232 H232           4.2575   -12.7549   -11.7290 H       
 233 H233           5.5148   -10.1760   -11.1849 H       
 234 H234           5.2260   -13.0554    -5.7097 H       
 235 H235           6.1162   -13.8899    -7.0057 H       
 236 H236           3.5702   -12.2615    -7.4244 H       
 237 H237           4.5742   -14.1291    -9.4324 H       
 238 H238           6.4289   -11.7295    -8.1820 H       
 239 H239           5.5387   -10.8950    -6.8860 H       
 240 H240           9.0582   -10.5445    -5.9165 H       
 241 H241           0.9004   -16.2476    -3.8840 H       
 242 H242           2.0183   -14.9281    -3.4624 H       
 243 H243           1.6084   -16.0158    -6.2834 H       
 244 H244           3.1939   -13.7960    -5.2412 H       
 245 H245          -1.5939   -12.6661    -4.7221 H       
 246 H246          -3.9856   -11.3331    -2.5524 H       
 247 H247          -1.7168   -13.6463    -1.3283 H       
 248 H248          -3.0223   -12.6707    -0.9202 H       
 249 H249           0.8131   -13.4123    -5.0111 H       
 250 H250          -0.3047   -14.7318    -5.4327 H       
 251 H251           0.0948   -13.5606    -2.6425 H       
 252 H252          -1.0231   -14.8800    -3.0640 H       
 253 H253           4.9571   -21.5305   -33.2269 H       
 254 H254           2.0655   -21.8600   -33.4673 H       
 255 H255           4.0178   -23.1108   -35.4505 H       
 256 H256           2.3093   -23.5808   -35.2815 H       
 257 H257           1.6184   -21.2579   -35.8060 H       
 258 H258           3.3268   -20.7878   -35.9750 H       
 259 H259           3.5956   -22.4269   -37.8162 H       
 260 H260           1.8872   -22.8969   -37.6472 H       
 261 H261           1.1962   -20.5740   -38.1717 H       
 262 H262           2.9046   -20.1039   -38.3407 H       
 263 H263           2.1820   -21.2593   -39.4857 H       
 264 H264           3.5259   -15.2823   -34.5878 H       
 265 H265           3.9912   -14.6421   -32.9935 H       
 266 H266           5.1374   -14.5637   -34.3530 H       
 267 H267          -1.8494   -26.0817   -32.1125 H       
 268 H268           0.2347   -27.2253   -32.2526 H       
 269 H269           0.5221   -28.6947   -30.1912 H       
 270 H270           0.2310   -31.0488   -30.8519 H       
 271 H271          -1.9835   -31.8661   -31.5526 H       
 272 H272          -3.9061   -30.3283   -31.5966 H       
 273 H273          -3.6140   -27.9730   -30.9404 H       
 274 H274          -0.5094   -26.6640   -29.4355 H       
 275 H275          -2.2565   -26.3908   -29.6387 H       
 276 H276          -4.3137   -22.4295   -29.8184 H       
 277 H277          -3.6770   -20.8167   -30.2208 H       
 278 H278          -1.5731   -21.8953   -31.0497 H       
 279 H279          -3.0136   -24.3667   -30.4827 H       
 280 H280          -5.5502   -21.7100   -33.2190 H       
 281 H281           3.2769   -25.3424   -30.8860 H       
 282 H282           1.0198   -25.3666   -30.2716 H       
 283 H283           1.7300   -29.0386   -31.7882 H       
 284 H284           2.4494   -30.8439   -30.2762 H       
 285 H285           4.6520   -30.7286   -29.1814 H       
 286 H286           6.1335   -28.8059   -29.5955 H       
 287 H287           5.4122   -26.9982   -31.1040 H       
 288 H288           2.3038   -27.1710   -33.1244 H       
 289 H289           3.9342   -26.4606   -33.0526 H       
@<TRIPOS>BOND
   1    1  100 am
   2    1  150 1
   3    1  151 1
   4    2    7 1
   5    2    3 1
   6    2  152 1
   7    2  153 1
   8    3    5 1
   9    3    4 1
  10    3  154 1
  11    4    6 2
  12    4  110 am
  13    5  118 am
  14    5  155 1
  15    7  156 1
  16    8   17 1
  17    8    9 1
  18    8  157 1
  19    8  158 1
  20    9   11 1
  21    9   10 1
  22    9  159 1
  23   10   12 2
  24   10   21 am
  25   11  133 am
  26   11  160 1
  27   13   18 1
  28   13   14 1
  29   13  161 1
  30   14   15 2
  31   14   16 1
  32   15  162 1
  33   16  163 1
  34   16  164 1
  35   17   18 1
  36   17  165 1
  37   17  166 1
  38   18  167 1
  39   18  168 1
  40   19   20 1
  41   19   21 1
  42   19   29 1
  43   19  169 1
  44   20   22 2
  45   20   33 am
  46   21  170 1
  47   23   24 ar
  48   23   28 ar
  49   23  171 1
  50   24   25 ar
  51   24  172 1
  52   25   26 ar
  53   25  173 1
  54   26   27 ar
  55   26  174 1
  56   27   28 ar
  57   27  175 1
  58   28   29 1
  59   29  176 1
  60   29  177 1
  61   30   35 1
  62   30   31 1
  63   30  178 1
  64   30  179 1
  65   31   33 1
  66   31   32 1
  67   31  180 1
  68   32   34 2
  69   32   41 am
  70   33  181 1
  71   35   36 1
  72   35   37 1
  73   35  182 1
  74   36  183 1
  75   36  184 1
  76   36  185 1
  77   37  186 1
  78   37  187 1
  79   37  188 1
  80   38   43 1
  81   38   39 1
  82   38  189 1
  83   38  190 1
  84   39   41 1
  85   39   40 1
  86   39  191 1
  87   40   42 2
  88   40   50 am
  89   41  192 1
  90   43   44 1
  91   43  193 1
  92   43  194 1
  93   44   45 2
  94   44   46 am
  95   46  195 1
  96   46  196 1
  97   47   52 1
  98   47   48 1
  99   47  197 1
 100   47  198 1
 101   48   49 1
 102   48   50 1
 103   48  199 1
 104   49   51 2
 105   49   64 am
 106   50  200 1
 107   52   53 2
 108   52   56 1
 109   53   54 1
 110   53  201 1
 111   54   55 1
 112   54  202 1
 113   55   56 ar
 114   55   57 ar
 115   56   60 ar
 116   57   58 ar
 117   57  203 1
 118   58   59 ar
 119   58  204 1
 120   59   60 ar
 121   59  205 1
 122   60  206 1
 123   61   66 1
 124   61   62 1
 125   61  207 1
 126   61  208 1
 127   62   64 1
 128   62   63 1
 129   62  209 1
 130   63   65 2
 131   63   73 am
 132   64  210 1
 133   66   67 1
 134   66  211 1
 135   66  212 1
 136   67   68 1
 137   67  213 1
 138   67  214 1
 139   68   69 1
 140   68  215 1
 141   68  216 1
 142   69  217 1
 143   69  218 1
 144   70   75 1
 145   70   71 1
 146   70  219 1
 147   70  220 1
 148   71   72 1
 149   71   73 1
 150   71  221 1
 151   72   74 2
 152   72   87 am
 153   73  222 1
 154   75   76 2
 155   75   79 1
 156   76   77 1
 157   76  223 1
 158   77   78 1
 159   77  224 1
 160   78   79 ar
 161   78   80 ar
 162   79   83 ar
 163   80   81 ar
 164   80  225 1
 165   81   82 ar
 166   81  226 1
 167   82   83 ar
 168   82  227 1
 169   83  228 1
 170   84   85 1
 171   84  229 1
 172   84  230 1
 173   84  231 1
 174   85   86 1
 175   85   87 1
 176   85  232 1
 177   86   88 2
 178   86   92 am
 179   87  233 1
 180   89   94 1
 181   89   90 1
 182   89  234 1
 183   89  235 1
 184   90   92 1
 185   90   91 1
 186   90  236 1
 187   91   93 2
 188   91  101 am
 189   92  237 1
 190   94   95 1
 191   94  238 1
 192   94  239 1
 193   95   96 2
 194   95   97 1
 195   97  240 1
 196   98  107 1
 197   98   99 1
 198   98  241 1
 199   98  242 1
 200   99  101 1
 201   99  100 1
 202   99  243 1
 203  100  102 2
 204  101  244 1
 205  103  108 1
 206  103  104 1
 207  103  245 1
 208  104  105 2
 209  104  106 1
 210  105  246 1
 211  106  247 1
 212  106  248 1
 213  107  108 1
 214  107  249 1
 215  107  250 1
 216  108  251 1
 217  108  252 1
 218  109  116 2
 219  109  111 1
 220  109  140 1
 221  110  111 1
 222  110  253 1
 223  111  112 1
 224  111  254 1
 225  112  113 1
 226  112  255 1
 227  112  256 1
 228  113  114 1
 229  113  257 1
 230  113  258 1
 231  114  115 1
 232  114  259 1
 233  114  260 1
 234  115  261 1
 235  115  262 1
 236  115  263 1
 237  117  118 2
 238  118  119 1
 239  119  264 1
 240  119  265 1
 241  119  266 1
 242  120  121 1
 243  120  122 1
 244  120  130 1
 245  120  267 1
 246  121  123 2
 247  121  134 am
 248  122  141 1
 249  122  268 1
 250  124  125 ar
 251  124  129 ar
 252  124  269 1
 253  125  126 ar
 254  125  270 1
 255  126  127 ar
 256  126  271 1
 257  127  128 ar
 258  127  272 1
 259  128  129 ar
 260  128  273 1
 261  129  130 1
 262  130  274 1
 263  130  275 1
 264  131  136 1
 265  131  132 1
 266  131  276 1
 267  131  277 1
 268  132  133 1
 269  132  134 1
 270  132  278 1
 271  133  135 2
 272  134  279 1
 273  136  137 2
 274  136  138 1
 275  138  280 1
 276  139  140 1
 277  139  141 1
 278  139  149 1
 279  139  281 1
 280  140  142 2
 281  141  282 1
 282  143  144 ar
 283  143  148 ar
 284  143  283 1
 285  144  145 ar
 286  144  284 1
 287  145  146 ar
 288  145  285 1
 289  146  147 ar
 290  146  286 1
 291  147  148 ar
 292  147  287 1
 293  148  149 1
 294  149  288 1
 295  149  289 1

#	End of record

