#	Name: ASD02030459
#	Creating user name:	WinNT
#	Creation time:	15. 06. 2019 20:15

#	Modifying user name:	WinNT
#	Modification time:	15. 06. 2019 20:15

#	Program:	/corina/corina34_cracker 3.40 0067  02.08.2006

@<TRIPOS>MOLECULE
ASD02030459
  42   42    0    0    0
SMALL
NO_CHARGES


@<TRIPOS>ATOM
   1 C1            -0.0144     1.2113     0.0087 C.2     
   2 O2             0.0346    -0.0020     0.0635 O.2     
   3 N3             1.1231     1.9282    -0.0846 N.am    
   4 C4             2.4373     1.2736     0.0031 C.3     
   5 C5             3.2824     1.7158    -1.1963 C.3     
   6 N6             3.3217     3.1833    -1.2491 N.3     
   7 C7             1.9816     3.7448    -1.4653 C.3     
   8 C8             1.0832     3.3850    -0.2830 C.3     
   9 C9             4.7047     1.1719    -1.0469 C.3     
  10 C10            2.6612     1.1749    -2.4857 C.3     
  11 C11           -1.3221     1.9004     0.0383 C.ar    
  12 C12           -2.4140     1.3613    -0.6439 C.ar    
  13 C13           -3.6323     2.0099    -0.6122 C.ar    
  14 C14           -3.7715     3.1930     0.0942 C.ar    
  15 C15           -2.6926     3.7319     0.7716 C.ar    
  16 C16           -1.4715     3.0897     0.7531 C.ar    
  17 Cl17          -4.9920     1.3417    -1.4597 Cl      
  18 H18            2.9322     1.5685     0.9284 H       
  19 H19            2.3094     0.1913    -0.0182 H       
  20 H20            3.7431     3.5639    -0.4150 H       
  21 H21            2.0515     4.8290    -1.5539 H       
  22 H22            1.5572     3.3313    -2.3801 H       
  23 H23            0.0605     3.6980    -0.4934 H       
  24 H24            1.4454     3.8868     0.6142 H       
  25 H25            4.6748     0.0831    -1.0053 H       
  26 H26            5.3055     1.4867    -1.9001 H       
  27 H27            5.1469     1.5586    -0.1287 H       
  28 H28            1.6485     1.5637    -2.5920 H       
  29 H29            3.2626     1.4897    -3.3385 H       
  30 H30            2.6300     0.0861    -2.4451 H       
  31 H31           -2.3060     0.4391    -1.1956 H       
  32 H32           -4.7263     3.6972     0.1159 H       
  33 H33           -2.8075     4.6552     1.3200 H       
  34 H34           -0.6315     3.5092     1.2869 H       
  35 C35           11.4769    11.8172     7.4668 C.2     
  36 C36           11.4973    10.3103     7.4586 C.3     
  37 O37           12.5150    12.4355     7.4603 O.2     
  38 O38           10.3055    12.4725     7.4760 O.3     
  39 F39           12.8225     9.8620     7.4435 F       
  40 F40           10.8552     9.8290     8.6045 F       
  41 F41           10.8334     9.8412     6.3200 F       
  42 H42           10.3430    13.4387     7.4810 H       
@<TRIPOS>BOND
   1    1    2 2
   2    1    3 am
   3    1   11 1
   4    3    4 1
   5    3    8 1
   6    4    5 1
   7    4   18 1
   8    4   19 1
   9    5    6 1
  10    5    9 1
  11    5   10 1
  12    6    7 1
  13    6   20 1
  14    7    8 1
  15    7   21 1
  16    7   22 1
  17    8   23 1
  18    8   24 1
  19    9   25 1
  20    9   26 1
  21    9   27 1
  22   10   28 1
  23   10   29 1
  24   10   30 1
  25   11   12 ar
  26   11   16 ar
  27   12   13 ar
  28   12   31 1
  29   13   14 ar
  30   13   17 1
  31   14   15 ar
  32   14   32 1
  33   15   16 ar
  34   15   33 1
  35   16   34 1
  36   35   36 1
  37   35   37 2
  38   35   38 1
  39   36   39 1
  40   36   40 1
  41   36   41 1
  42   38   42 1

#	End of record

