#	Name: ASD03730007
#	Creating user name:	WinNT
#	Creation time:	15. 06. 2019 20:43

#	Modifying user name:	WinNT
#	Modification time:	15. 06. 2019 20:43

#	Program:	/corina/corina34_cracker 3.40 0067  02.08.2006

@<TRIPOS>MOLECULE
ASD03730007
  47   52    0    0    0
SMALL
NO_CHARGES


@<TRIPOS>ATOM
   1 C1            -1.5162    -1.3546     2.4027 C.2     
   2 C2            -0.6690    -1.2334     1.2009 C.ar    
   3 C3            -1.1865    -0.6707     0.0311 C.ar    
   4 C4            -0.3888    -0.5606    -1.0884 C.ar    
   5 C5             0.9212    -1.0058    -1.0553 C.ar    
   6 C6             1.4403    -1.5640     0.0995 C.ar    
   7 C7             0.6559    -1.6753     1.2287 C.ar    
   8 O8            -1.0937    -1.9353     3.3926 O.co2   
   9 O9            -2.6390    -0.8700     2.4108 O.co2   
  10 C10           -2.6128    -0.1858    -0.0070 C.3     
  11 O11           -0.0406    -1.7033    -6.5470 O.3     
  12 C12           -0.0455    -1.5819    -7.9817 C.3     
  13 O13           -1.4452    -1.5550    -8.3181 O.3     
  14 C14           -2.0759    -1.0467    -7.2188 C.ar    
  15 C15           -1.2121    -1.1391    -6.1298 C.ar    
  16 C16           -3.3375    -0.5029    -7.0566 C.ar    
  17 C17           -3.7539    -0.0470    -5.8095 C.ar    
  18 C18           -2.8851    -0.1522    -4.7275 C.ar    
  19 C19           -1.6244    -0.6883    -4.8872 C.ar    
  20 O20           -4.9335     0.5304    -5.4415 O.3     
  21 C21           -3.6215     0.3901    -3.5319 C.3     
  22 C22           -5.0786     0.4444    -4.0108 C.3     
  23 N23           -2.9307     0.2908    -1.3554 N.am    
  24 C24           -3.4622    -0.4843    -2.3216 C.2     
  25 C25           -3.1186     1.7406    -3.1158 C.ar    
  26 C26           -3.0024     2.9524    -3.7596 C.ar    
  27 C27           -2.4862     4.0467    -3.0887 C.ar    
  28 C28           -2.0867     3.9205    -1.7706 C.ar    
  29 C29           -2.2001     2.7086    -1.1219 C.ar    
  30 C30           -2.7190     1.6017    -1.7892 C.ar    
  31 O31           -3.7547    -1.6579    -2.2312 O.2     
  32 H32           -0.7875    -0.1263    -1.9932 H       
  33 H33            1.5412    -0.9174    -1.9351 H       
  34 H34            2.4634    -1.9097     0.1180 H       
  35 H35            1.0638    -2.1068     2.1308 H       
  36 H36           -3.2822    -1.0048     0.2560 H       
  37 H37           -2.7386     0.6294     0.7055 H       
  38 H38            0.4402    -0.6558    -8.2894 H       
  39 H39            0.4422    -2.4420    -8.4405 H       
  40 H40           -4.0038    -0.4317    -7.9036 H       
  41 H41           -0.9571    -0.7569    -4.0407 H       
  42 H42           -5.5823     1.3281    -3.6190 H       
  43 H43           -5.6126    -0.4633    -3.7297 H       
  44 H44           -3.3149     3.0486    -4.7889 H       
  45 H45           -2.3958     4.9975    -3.5930 H       
  46 H46           -1.6836     4.7747    -1.2470 H       
  47 H47           -1.8855     2.6177    -0.0927 H       
@<TRIPOS>BOND
   1    1    2 1
   2    1    8 ar
   3    1    9 ar
   4    2    3 ar
   5    2    7 ar
   6    3    4 ar
   7    3   10 1
   8    4    5 ar
   9    4   32 1
  10    5    6 ar
  11    5   33 1
  12    6    7 ar
  13    6   34 1
  14    7   35 1
  15   10   23 1
  16   10   36 1
  17   10   37 1
  18   11   12 1
  19   11   15 1
  20   12   13 1
  21   12   38 1
  22   12   39 1
  23   13   14 1
  24   14   15 ar
  25   14   16 ar
  26   15   19 ar
  27   16   17 ar
  28   16   40 1
  29   17   18 ar
  30   17   20 1
  31   18   19 ar
  32   18   21 1
  33   19   41 1
  34   20   22 1
  35   21   22 1
  36   21   24 1
  37   21   25 1
  38   22   42 1
  39   22   43 1
  40   23   24 am
  41   23   30 1
  42   24   31 2
  43   25   26 ar
  44   25   30 ar
  45   26   27 ar
  46   26   44 1
  47   27   28 ar
  48   27   45 1
  49   28   29 ar
  50   28   46 1
  51   29   30 ar
  52   29   47 1

#	End of record

