#	Name: ASD05430273
#	Creating user name:	WinNT
#	Creation time:	15. 06. 2019 21:00

#	Modifying user name:	WinNT
#	Modification time:	15. 06. 2019 21:00

#	Program:	/corina/corina34_cracker 3.40 0067  02.08.2006

@<TRIPOS>MOLECULE
ASD05430273
  75   80    0    0    0
SMALL
NO_CHARGES


@<TRIPOS>ATOM
   1 C1             0.0603     1.1742     0.4075 C.ar    
   2 C2             0.0201    -0.0135    -0.3218 C.ar    
   3 C3             1.1654    -0.4866    -0.9488 C.ar    
   4 C4             2.3473     0.2155    -0.8532 C.ar    
   5 C5             2.3953     1.4080    -0.1236 C.ar    
   6 C6             1.2420     1.8842     0.5076 C.ar    
   7 C7             4.8669    -0.0026     0.2155 C.3     
   8 C8             4.8285     1.5000     0.0677 C.2     
   9 C9             3.6566     2.1594    -0.0202 C.2     
  10 C10            6.2204    -0.4637     0.7518 C.3     
  11 C11            6.8358     0.5746     1.6926 C.3     
  12 N12            7.0789     1.8125     0.9520 N.pl3   
  13 C13            6.1093     2.2213     0.0230 C.2     
  14 N14           -1.1797    -0.7323    -0.4221 N.pl3   
  15 C15           -1.7535    -1.2033    -1.5745 C.2     
  16 C16           -2.8893    -1.8321    -1.2160 C.2     
  17 N17           -3.0103    -1.7502     0.1172 N.2     
  18 C18           -1.9897    -1.0984     0.6047 C.2     
  19 C19           -3.8569    -2.5104    -2.1513 C.3     
  20 C20            8.2663     2.6351     1.1712 C.3     
  21 C21            8.7589     3.1649    -0.1804 C.3     
  22 N22            7.6312     3.7286    -0.9262 N.pl3   
  23 N23            6.3564     3.1564    -0.8362 N.2     
  24 C24            7.9191     3.7930     2.0711 C.ar    
  25 C25            8.8909     4.7122     2.4199 C.ar    
  26 C26            7.2820     5.9177     3.7228 C.ar    
  27 C27            6.3079     5.0001     3.3674 C.ar    
  28 C28            6.6276     3.9384     2.5425 C.ar    
  29 C29            8.5738     5.7742     3.2455 C.ar    
  30 F30            6.9706     6.9562     4.5288 F       
  31 C31            7.8395     4.9039    -1.7757 C.3     
  32 C32            9.3632     1.7891     1.8207 C.3     
  33 C33            6.0356    -1.7811     1.5161 C.3     
  34 C34            5.5084    -2.8474     0.5516 C.3     
  35 C35            6.4841    -2.9927    -0.6191 C.3     
  36 O36            6.6416    -1.7279    -1.2655 O.3     
  37 C37            7.1748    -0.7042    -0.4233 C.3     
  38 C38           -0.9503     2.8598     1.7461 C.3     
  39 O39           -1.0642     1.6369     1.0157 O.3     
  40 H40            1.1298    -1.4072    -1.5124 H       
  41 H41            3.2367    -0.1551    -1.3412 H       
  42 H42            1.2744     2.8047     1.0716 H       
  43 H43            4.0830    -0.3148     0.9056 H       
  44 H44            4.6912    -0.4628    -0.7568 H       
  45 H45            3.6429     3.2393    -0.0148 H       
  46 H46            6.1493     0.7719     2.5159 H       
  47 H47            7.7785     0.1951     2.0868 H       
  48 H48           -1.3688    -1.0913    -2.5774 H       
  49 H49           -1.8210    -0.8810     1.6491 H       
  50 H50           -3.5706    -3.5547    -2.2755 H       
  51 H51           -4.8629    -2.4565    -1.7351 H       
  52 H52           -3.8371    -2.0106    -3.1197 H       
  53 H53            9.5085     3.9389    -0.0157 H       
  54 H54            9.2001     2.3481    -0.7517 H       
  55 H55            9.8985     4.6002     2.0475 H       
  56 H56            5.2988     5.1138     3.7350 H       
  57 H57            5.8682     3.2221     2.2657 H       
  58 H58            9.3334     6.4918     3.5185 H       
  59 H59            8.1102     4.5820    -2.7813 H       
  60 H60            6.9213     5.4899    -1.8166 H       
  61 H61            8.6418     5.5142    -1.3612 H       
  62 H62            9.6156     0.9558     1.1648 H       
  63 H63           10.2481     2.4043     1.9834 H       
  64 H64            9.0074     1.4043     2.7764 H       
  65 H65            6.9930    -2.1020     1.9266 H       
  66 H66            5.3203    -1.6359     2.3256 H       
  67 H67            5.4217    -3.8002     1.0740 H       
  68 H68            4.5304    -2.5469     0.1756 H       
  69 H69            7.4503    -3.3336    -0.2470 H       
  70 H70            6.0919    -3.7186    -1.3314 H       
  71 H71            7.2857     0.2166    -0.9960 H       
  72 H72            8.1478    -1.0160    -0.0436 H       
  73 H73           -0.2149     2.7407     2.5418 H       
  74 H74           -0.6322     3.6564     1.0736 H       
  75 H75           -1.9171     3.1151     2.1801 H       
@<TRIPOS>BOND
   1    1    2 ar
   2    1    6 ar
   3    1   39 1
   4    2    3 ar
   5    2   14 1
   6    3    4 ar
   7    3   40 1
   8    4    5 ar
   9    4   41 1
  10    5    6 ar
  11    5    9 1
  12    6   42 1
  13    7    8 1
  14    7   10 1
  15    7   43 1
  16    7   44 1
  17    8    9 2
  18    8   13 1
  19    9   45 1
  20   10   11 1
  21   10   33 1
  22   10   37 1
  23   11   12 1
  24   11   46 1
  25   11   47 1
  26   12   13 1
  27   12   20 1
  28   13   23 2
  29   14   15 1
  30   14   18 1
  31   15   16 2
  32   15   48 1
  33   16   17 1
  34   16   19 1
  35   17   18 2
  36   18   49 1
  37   19   50 1
  38   19   51 1
  39   19   52 1
  40   20   21 1
  41   20   24 1
  42   20   32 1
  43   21   22 1
  44   21   53 1
  45   21   54 1
  46   22   23 1
  47   22   31 1
  48   24   25 ar
  49   24   28 ar
  50   25   29 ar
  51   25   55 1
  52   26   27 ar
  53   26   30 1
  54   26   29 ar
  55   27   28 ar
  56   27   56 1
  57   28   57 1
  58   29   58 1
  59   31   59 1
  60   31   60 1
  61   31   61 1
  62   32   62 1
  63   32   63 1
  64   32   64 1
  65   33   34 1
  66   33   65 1
  67   33   66 1
  68   34   35 1
  69   34   67 1
  70   34   68 1
  71   35   36 1
  72   35   69 1
  73   35   70 1
  74   36   37 1
  75   37   71 1
  76   37   72 1
  77   38   39 1
  78   38   73 1
  79   38   74 1
  80   38   75 1

#	End of record

