#	Name: ASD01883806
#	Creating user name:	WinNT
#	Creation time:	15. 06. 2019 19:47

#	Modifying user name:	WinNT
#	Modification time:	15. 06. 2019 19:47

#	Program:	/corina/corina34_cracker 3.40 0067  02.08.2006

@<TRIPOS>MOLECULE
ASD01883806
  49   53    0    0    0
SMALL
NO_CHARGES


@<TRIPOS>ATOM
   1 C1            -0.0168     1.3900     0.0145 C.ar    
   2 C2             0.0021    -0.0041     0.0020 C.ar    
   3 C3             1.2115    -0.6763    -0.0165 C.ar    
   4 C4             2.3974     0.0438    -0.0224 C.ar    
   5 C5             2.3879     1.4508    -0.0098 C.ar    
   6 C6             1.1392     2.1063     0.0089 C.ar    
   7 S7             4.0950    -0.4387    -0.0442 S.3     
   8 N8             4.7403     1.1264    -0.0371 N.am    
   9 C9             3.7355     2.0019    -0.0189 C.2     
  10 O10            3.9350     3.2045    -0.0108 O.2     
  11 O11           -1.1634    -0.7005     0.0083 O.3     
  12 C12           -2.3733     0.0598     0.0280 C.3     
  13 C13           -3.5545    -0.8760     0.0324 C.ar    
  14 C14           -4.0816    -1.3142     1.2301 C.ar    
  15 C15           -5.1742    -2.1792     1.2327 C.ar    
  16 C16           -5.7285    -2.5967     0.0247 C.ar    
  17 C17           -5.1933    -2.1521    -1.1675 C.ar    
  18 C18           -4.1122    -1.2896    -1.1642 C.ar    
  19 C19           -5.7449    -2.6542     2.5176 C.ar    
  20 C20           -6.8349    -3.5170     2.5180 C.ar    
  21 C21           -7.3665    -3.9596     3.7292 C.ar    
  22 C22           -6.7999    -3.5328     4.9339 C.ar    
  23 C23           -5.7162    -2.6748     4.9236 C.ar    
  24 C24           -5.1845    -2.2398     3.7261 C.ar    
  25 C25            6.1661     1.4626    -0.0481 C.3     
  26 Cl26          -7.4582    -4.0803     6.4441 Cl      
  27 C27            6.9963     1.0601     1.1724 C.3     
  28 C28            7.1637     0.3068    -0.1487 C.3     
  29 C29           -8.5245    -4.8758     3.7390 C.2     
  30 O30           -8.9860    -5.2602     4.7949 O.2     
  31 O31           -9.0692    -5.2855     2.5769 O.3     
  32 H32           -0.9639     1.9089     0.0244 H       
  33 H33            1.2322    -1.7560    -0.0259 H       
  34 H34            1.1008     3.1856     0.0184 H       
  35 H35           -2.3980     0.6802     0.9238 H       
  36 H36           -2.4171     0.6960    -0.8560 H       
  37 H37           -3.6478    -0.9878     2.1638 H       
  38 H38           -6.5751    -3.2672     0.0210 H       
  39 H39           -5.6220    -2.4754    -2.1046 H       
  40 H40           -3.6968    -0.9439    -2.0992 H       
  41 H41           -7.2686    -3.8430     1.5841 H       
  42 H42           -5.2808    -2.3469     5.8560 H       
  43 H43           -4.3378    -1.5694     3.7249 H       
  44 H44            6.4251     2.3963    -0.5473 H       
  45 H45            7.8017     1.7289     1.4760 H       
  46 H46            6.4816     0.5452     1.9837 H       
  47 H47            6.7590    -0.7036    -0.2067 H       
  48 H48            8.0792     0.4800    -0.7143 H       
  49 H49           -9.8258    -5.8850     2.6339 H       
@<TRIPOS>BOND
   1    1    2 ar
   2    1    6 ar
   3    1   32 1
   4    2    3 ar
   5    2   11 1
   6    3    4 ar
   7    3   33 1
   8    4    5 ar
   9    4    7 1
  10    5    6 ar
  11    5    9 1
  12    6   34 1
  13    7    8 1
  14    8    9 am
  15    8   25 1
  16    9   10 2
  17   11   12 1
  18   12   13 1
  19   12   35 1
  20   12   36 1
  21   13   14 ar
  22   13   18 ar
  23   14   15 ar
  24   14   37 1
  25   15   16 ar
  26   15   19 1
  27   16   17 ar
  28   16   38 1
  29   17   18 ar
  30   17   39 1
  31   18   40 1
  32   19   20 ar
  33   19   24 ar
  34   20   21 ar
  35   20   41 1
  36   21   22 ar
  37   21   29 1
  38   22   23 ar
  39   22   26 1
  40   23   24 ar
  41   23   42 1
  42   24   43 1
  43   25   27 1
  44   25   28 1
  45   25   44 1
  46   27   28 1
  47   27   45 1
  48   27   46 1
  49   28   47 1
  50   28   48 1
  51   29   30 2
  52   29   31 1
  53   31   49 1

#	End of record

