#	Name: ASD01916879
#	Creating user name:	WinNT
#	Creation time:	15. 06. 2019 20:08

#	Modifying user name:	WinNT
#	Modification time:	15. 06. 2019 20:08

#	Program:	/corina/corina34_cracker 3.40 0067  02.08.2006

@<TRIPOS>MOLECULE
ASD01916879
  64   68    0    0    0
SMALL
NO_CHARGES


@<TRIPOS>ATOM
   1 C1            -0.0055     1.3584     0.1597 C.ar    
   2 C2             0.0243    -0.0040     0.4249 C.ar    
   3 C3             1.2396    -0.6587     0.5732 C.ar    
   4 C4             2.4211     0.0431     0.4570 C.ar    
   5 C5             2.3943     1.4108     0.1903 C.ar    
   6 C6             1.1728     2.0654     0.0425 C.ar    
   7 C7             3.6638     2.1687     0.0647 C.2     
   8 N8             4.8920     1.6531     0.1857 N.2     
   9 N9             3.7639     3.4558    -0.1895 N.2     
  10 N10            5.1344     3.7600    -0.2234 N.pl3   
  11 C11            5.7897     2.6006     0.0164 C.2     
  12 C12            7.2583     2.4283     0.0779 C.ar    
  13 C13            5.7359     5.0723    -0.4729 C.3     
  14 C14            5.8668     5.8205     0.8287 C.2     
  15 O15            5.4945     5.3080     1.8629 O.2     
  16 N16            6.3978     7.0592     0.8435 N.am    
  17 C17            6.5348     7.8068     2.1027 C.3     
  18 C18            7.9781     8.3092     2.2160 C.3     
  19 N19            8.3272     9.0633     1.0047 N.3     
  20 C20            8.2862     8.2058    -0.1873 C.3     
  21 C21            6.8612     7.6967    -0.3983 C.3     
  22 C22            9.5698     9.6724     1.1378 C.ar    
  23 N23           10.2582     9.5203     2.2599 N.ar    
  24 C24           10.0800    10.4294     0.0915 C.ar    
  25 C25           11.4419    10.0796     2.4302 C.ar    
  26 C26           12.0106    10.8498     1.4385 C.ar    
  27 C27           11.3235    11.0318     0.2387 C.ar    
  28 C28            8.0842     3.5308     0.2981 C.ar    
  29 C29            9.4526     3.3636     0.3544 C.ar    
  30 C30           10.0060     2.1060     0.1930 C.ar    
  31 C31            9.1923     1.0087    -0.0256 C.ar    
  32 C32            7.8221     1.1619    -0.0782 C.ar    
  33 O33           -1.1381    -0.6980     0.5400 O.3     
  34 C34           -1.0343    -2.0967     0.8135 C.3     
  35 O35           11.8541    11.7841    -0.7589 O.3     
  36 C36           13.1347    12.3708    -0.5183 C.3     
  37 H37           -0.9522     1.8642     0.0407 H       
  38 H38            1.2598    -1.7184     0.7802 H       
  39 H39            3.3662    -0.4666     0.5728 H       
  40 H40            1.1490     3.1251    -0.1646 H       
  41 H41            6.7224     4.9413    -0.9175 H       
  42 H42            5.1021     5.6387    -1.1553 H       
  43 H43            5.8508     8.6555     2.1009 H       
  44 H44            6.3080     7.1519     2.9439 H       
  45 H45            8.0702     8.9575     3.0873 H       
  46 H46            8.6519     7.4590     2.3219 H       
  47 H47            8.6018     8.7791    -1.0589 H       
  48 H48            8.9557     7.3570    -0.0479 H       
  49 H49            6.8483     6.9709    -1.2113 H       
  50 H50            6.2056     8.5333    -0.6401 H       
  51 H51            9.5187    10.5480    -0.8236 H       
  52 H52           11.9719     9.9319     3.3596 H       
  53 H53           12.9793    11.3035     1.5873 H       
  54 H54            7.6533     4.5131     0.4238 H       
  55 H55           10.0931     4.2164     0.5244 H       
  56 H56           11.0778     1.9804     0.2376 H       
  57 H57            9.6303     0.0295    -0.1508 H       
  58 H58            7.1878     0.3045    -0.2486 H       
  59 H59           -0.4807    -2.5838     0.0108 H       
  60 H60           -0.5104    -2.2444     1.7578 H       
  61 H61           -2.0327    -2.5289     0.8805 H       
  62 H62           13.0749    13.0314     0.3466 H       
  63 H63           13.8641    11.5842    -0.3250 H       
  64 H64           13.4418    12.9441    -1.3930 H       
@<TRIPOS>BOND
   1    1    2 ar
   2    1    6 ar
   3    1   37 1
   4    2    3 ar
   5    2   33 1
   6    3    4 ar
   7    3   38 1
   8    4    5 ar
   9    4   39 1
  10    5    6 ar
  11    5    7 1
  12    6   40 1
  13    7    8 1
  14    7    9 2
  15    8   11 2
  16    9   10 1
  17   10   11 1
  18   10   13 1
  19   11   12 1
  20   12   28 ar
  21   12   32 ar
  22   13   14 1
  23   13   41 1
  24   13   42 1
  25   14   15 2
  26   14   16 am
  27   16   17 1
  28   16   21 1
  29   17   18 1
  30   17   43 1
  31   17   44 1
  32   18   19 1
  33   18   45 1
  34   18   46 1
  35   19   20 1
  36   19   22 1
  37   20   21 1
  38   20   47 1
  39   20   48 1
  40   21   49 1
  41   21   50 1
  42   22   23 ar
  43   22   24 ar
  44   23   25 ar
  45   24   27 ar
  46   24   51 1
  47   25   26 ar
  48   25   52 1
  49   26   27 ar
  50   26   53 1
  51   27   35 1
  52   28   29 ar
  53   28   54 1
  54   29   30 ar
  55   29   55 1
  56   30   31 ar
  57   30   56 1
  58   31   32 ar
  59   31   57 1
  60   32   58 1
  61   33   34 1
  62   34   59 1
  63   34   60 1
  64   34   61 1
  65   35   36 1
  66   36   62 1
  67   36   63 1
  68   36   64 1

#	End of record

