#	Name: ASD01870242
#	Creating user name:	WinNT
#	Creation time:	15. 06. 2019 19:38

#	Modifying user name:	WinNT
#	Modification time:	15. 06. 2019 19:38

#	Program:	/corina/corina34_cracker 3.40 0067  02.08.2006

@<TRIPOS>MOLECULE
ASD01870242
  44   46    0    0    0
SMALL
NO_CHARGES


@<TRIPOS>ATOM
   1 C1            -0.3133     1.1382     1.7219 C.ar    
   2 C2            -0.2313    -0.2084     1.3773 C.ar    
   3 N3             0.8057     1.8561     1.7944 N.ar    
   4 C4             1.9787     1.3098     1.5456 C.ar    
   5 N5             2.1012     0.0409     1.2166 N.ar    
   6 C6             1.0289    -0.7482     1.1218 C.ar    
   7 N7            -1.5427     1.7244     1.9802 N.pl3   
   8 C8            -2.7679     0.9261     1.8914 C.3     
   9 C9            -3.8485     1.5503     2.7766 C.3     
  10 C10           -3.2523     0.8949     0.4404 C.3     
  11 C11            1.1752    -2.1744     0.7517 C.2     
  12 N12            0.1311    -2.9948     0.6459 N.2     
  13 C13            2.3727    -2.7332     0.4924 C.2     
  14 S14            2.1155    -4.4302     0.0945 S.3     
  15 C15            0.3810    -4.2225     0.3150 C.2     
  16 N16           -0.5717    -5.2203     0.1596 N.am    
  17 C17           -0.1923    -6.4660    -0.1876 C.2     
  18 C18           -1.9894    -4.9191     0.3731 C.3     
  19 C19           -1.1920    -7.5509    -0.2538 C.ar    
  20 O20            0.9730    -6.6966    -0.4465 O.2     
  21 C21           -2.4972    -7.2769    -0.6688 C.ar    
  22 C22           -0.8343    -8.8558     0.0929 C.ar    
  23 C23           -1.7713    -9.8646     0.0289 C.ar    
  24 C24           -3.0670    -9.5860    -0.3787 C.ar    
  25 C25           -3.4262    -8.2933    -0.7291 C.ar    
  26 F26           -3.9815   -10.5785    -0.4397 F       
  27 H27           -1.1199    -0.8186     1.3101 H       
  28 H28            2.8663     1.9214     1.6132 H       
  29 H29           -1.5917     2.6631     2.2196 H       
  30 H30           -2.5645    -0.0903     2.2285 H       
  31 H31           -4.0519     2.5667     2.4395 H       
  32 H32           -4.7601     0.9564     2.7105 H       
  33 H33           -3.5034     1.5725     3.8102 H       
  34 H34           -2.4824     0.4502    -0.1901 H       
  35 H35           -4.1638     0.3010     0.3744 H       
  36 H36           -3.4556     1.9114     0.1034 H       
  37 H37            3.3267    -2.2278     0.5228 H       
  38 H38           -2.4449    -4.6254    -0.5726 H       
  39 H39           -2.4945    -5.8039     0.7604 H       
  40 H40           -2.0836    -4.1038     1.0905 H       
  41 H41           -2.7781    -6.2704    -0.9416 H       
  42 H42            0.1747    -9.0739     0.4102 H       
  43 H43           -1.4957   -10.8740     0.2964 H       
  44 H44           -4.4369    -8.0818    -1.0455 H       
@<TRIPOS>BOND
   1    1    2 ar
   2    1    3 ar
   3    1    7 1
   4    2    6 ar
   5    2   27 1
   6    3    4 ar
   7    4    5 ar
   8    4   28 1
   9    5    6 ar
  10    6   11 1
  11    7    8 1
  12    7   29 1
  13    8    9 1
  14    8   10 1
  15    8   30 1
  16    9   31 1
  17    9   32 1
  18    9   33 1
  19   10   34 1
  20   10   35 1
  21   10   36 1
  22   11   12 1
  23   11   13 2
  24   12   15 2
  25   13   14 1
  26   13   37 1
  27   14   15 1
  28   15   16 1
  29   16   17 am
  30   16   18 1
  31   17   19 1
  32   17   20 2
  33   18   38 1
  34   18   39 1
  35   18   40 1
  36   19   21 ar
  37   19   22 ar
  38   21   25 ar
  39   21   41 1
  40   22   23 ar
  41   22   42 1
  42   23   24 ar
  43   23   43 1
  44   24   25 ar
  45   24   26 1
  46   25   44 1

#	End of record

