#	Name: ASD01911284
#	Creating user name:	WinNT
#	Creation time:	15. 06. 2019 19:57

#	Modifying user name:	WinNT
#	Modification time:	15. 06. 2019 19:57

#	Program:	/corina/corina34_cracker 3.40 0067  02.08.2006

@<TRIPOS>MOLECULE
ASD01911284
  30   32    0    0    0
SMALL
NO_CHARGES


@<TRIPOS>ATOM
   1 C1            -0.0167     1.3797     0.0096 C.ar    
   2 C2             0.0021    -0.0041     0.0020 C.ar    
   3 C3             1.2058    -0.6867    -0.0131 C.ar    
   4 C4             2.3967     0.0085    -0.0203 C.ar    
   5 C5             2.3859     1.4064    -0.0127 C.ar    
   6 C6             1.1660     2.0889     0.0021 C.ar    
   7 C7             3.6183     2.1356    -0.0196 C.1     
   8 C8             4.6287     2.7334    -0.0252 C.1     
   9 C9             5.8612     3.4626    -0.0321 C.ar    
  10 N10            5.8319     4.7927    -0.0247 N.ar    
  11 C11            6.9430     5.5101    -0.0307 C.ar    
  12 C12            8.1915     4.8599    -0.0378 C.ar    
  13 C13            8.2509     3.4604    -0.0488 C.ar    
  14 C14            7.0734     2.7615    -0.0407 C.ar    
  15 O15            6.8712     6.8605    -0.0368 O.3     
  16 C16            7.9898     7.6091     0.4375 C.3     
  17 C17            9.2582     7.1517    -0.2976 C.3     
  18 C18            9.4202     5.6659    -0.0284 C.2     
  19 O19           10.5073     5.1703     0.1834 O.2     
  20 H20           -0.9600     1.9056     0.0169 H       
  21 H21           -0.9274    -0.5540     0.0083 H       
  22 H22            1.2125    -1.7667    -0.0190 H       
  23 H23            3.3354    -0.5256    -0.0314 H       
  24 H24            1.1498     3.1687     0.0077 H       
  25 H25            9.2005     2.9461    -0.0596 H       
  26 H26            7.0794     1.6816    -0.0486 H       
  27 H27            7.8233     8.6699     0.2497 H       
  28 H28            8.1104     7.4438     1.5081 H       
  29 H29            9.1501     7.3255    -1.3682 H       
  30 H30           10.1237     7.6945     0.0823 H       
@<TRIPOS>BOND
   1    1    2 ar
   2    1    6 ar
   3    1   20 1
   4    2    3 ar
   5    2   21 1
   6    3    4 ar
   7    3   22 1
   8    4    5 ar
   9    4   23 1
  10    5    6 ar
  11    5    7 1
  12    6   24 1
  13    7    8 3
  14    8    9 1
  15    9   10 ar
  16    9   14 ar
  17   10   11 ar
  18   11   12 ar
  19   11   15 1
  20   12   13 ar
  21   12   18 1
  22   13   14 ar
  23   13   25 1
  24   14   26 1
  25   15   16 1
  26   16   17 1
  27   16   27 1
  28   16   28 1
  29   17   18 1
  30   17   29 1
  31   17   30 1
  32   18   19 2

#	End of record

