#	Name: ASD02770022
#	Creating user name:	WinNT
#	Creation time:	15. 06. 2019 20:26

#	Modifying user name:	WinNT
#	Modification time:	15. 06. 2019 20:26

#	Program:	/corina/corina34_cracker 3.40 0067  02.08.2006

@<TRIPOS>MOLECULE
ASD02770022
  66   67    0    0    0
SMALL
NO_CHARGES


@<TRIPOS>ATOM
   1 C1             4.6277     2.4569    -3.2359 C.2     
   2 C2             4.0870     1.0776    -2.9599 C.3     
   3 O3             5.8165     2.6739    -3.1333 O.2     
   4 N4             3.7909     3.4480    -3.6021 N.am    
   5 O5             5.1618     0.2081    -2.5986 O.3     
   6 C6             4.8428    -1.0834    -2.3154 C.ar    
   7 C7             4.8325    -2.0339    -3.3246 C.ar    
   8 C8             4.5082    -3.3468    -3.0344 C.ar    
   9 C9             4.1936    -3.7140    -1.7392 C.ar    
  10 C10            4.2021    -2.7709    -0.7286 C.ar    
  11 C11            4.5317    -1.4548    -1.0113 C.ar    
  12 C12            3.8400    -5.1456    -1.4285 C.3     
  13 N13            5.0598    -5.8871    -1.0817 N.3     
  14 C14            4.7429    -7.2650    -0.6832 C.3     
  15 C15            6.0415    -8.0446    -0.4663 C.3     
  16 C16            6.8626    -7.3712     0.6352 C.3     
  17 C17            6.0552    -7.3534     1.9347 C.3     
  18 C18            4.7567    -6.5739     1.7177 C.3     
  19 C19            3.9356    -7.2473     0.6163 C.3     
  20 C20            3.9493    -6.5561     3.0172 C.3     
  21 C21            5.7114    -9.4798    -0.0512 C.3     
  22 C22            5.0761   -10.2185    -1.2309 C.3     
  23 C23            6.9959   -10.1976     0.3680 C.3     
  24 C24            3.9341    -7.9283    -1.7681 C.2     
  25 C25            4.3127    -8.0552    -3.0409 C.2     
  26 C26            3.4025    -8.7030    -3.8582 C.2     
  27 C27            2.2849    -9.1022    -3.2492 C.2     
  28 S28            2.3500    -8.6602    -1.5481 S.3     
  29 O29            4.5458    -0.5272    -0.0168 O.3     
  30 C30            4.2159    -0.9803     1.2977 C.3     
  31 Br31           5.2610    -1.5354    -5.0977 Br      
  32 H32            3.3682     1.1261    -2.1419 H       
  33 H33            3.5947     0.6948    -3.8538 H       
  34 H34            2.8406     3.2734    -3.6880 H       
  35 H35            4.1390     4.3358    -3.7798 H       
  36 H36            4.5004    -4.0865    -3.8212 H       
  37 H37            3.9559    -3.0606     0.2823 H       
  38 H38            3.1461    -5.1744    -0.5885 H       
  39 H39            3.3731    -5.6022    -2.3013 H       
  40 H40            5.7201    -5.8740    -1.8445 H       
  41 H41            6.6167    -8.0573    -1.3920 H       
  42 H42            7.7877    -7.9266     0.7898 H       
  43 H43            7.0977    -6.3488     0.3395 H       
  44 H44            5.8201    -8.3759     2.2304 H       
  45 H45            6.6402    -6.8737     2.7194 H       
  46 H46            4.9918    -5.5514     1.4220 H       
  47 H47            3.0105    -6.6919     0.4617 H       
  48 H48            3.7004    -8.2697     0.9120 H       
  49 H49            4.5343    -6.0764     3.8019 H       
  50 H50            3.0242    -6.0007     2.8626 H       
  51 H51            3.7142    -7.5786     3.3129 H       
  52 H52            5.0138    -9.4645     0.7862 H       
  53 H53            5.2321   -11.2910    -1.1145 H       
  54 H54            4.0070   -10.0077    -1.2584 H       
  55 H55            5.5366    -9.8831    -2.1601 H       
  56 H56            7.4485    -9.6713     1.2084 H       
  57 H57            6.7608   -11.2201     0.6637 H       
  58 H58            7.6935   -10.2129    -0.4694 H       
  59 H59            5.2575    -7.6806    -3.4060 H       
  60 H60            3.5834    -8.8721    -4.9094 H       
  61 H61            1.4668    -9.6207    -3.7269 H       
  62 H62            4.2649    -0.1428     1.9936 H       
  63 H63            3.2073    -1.3936     1.2970 H       
  64 H64            4.9238    -1.7500     1.6050 H       
  65 Cl65          12.7877     9.3358     8.8019 Cl      
  66 H66           12.7877    10.7058     8.8019 H       
@<TRIPOS>BOND
   1    1    2 1
   2    1    3 2
   3    1    4 am
   4    2    5 1
   5    2   32 1
   6    2   33 1
   7    4   34 1
   8    4   35 1
   9    5    6 1
  10    6    7 ar
  11    6   11 ar
  12    7    8 ar
  13    7   31 1
  14    8    9 ar
  15    8   36 1
  16    9   10 ar
  17    9   12 1
  18   10   11 ar
  19   10   37 1
  20   11   29 1
  21   12   13 1
  22   12   38 1
  23   12   39 1
  24   13   14 1
  25   13   40 1
  26   14   15 1
  27   14   19 1
  28   14   24 1
  29   15   16 1
  30   15   21 1
  31   15   41 1
  32   16   17 1
  33   16   42 1
  34   16   43 1
  35   17   18 1
  36   17   44 1
  37   17   45 1
  38   18   19 1
  39   18   20 1
  40   18   46 1
  41   19   47 1
  42   19   48 1
  43   20   49 1
  44   20   50 1
  45   20   51 1
  46   21   22 1
  47   21   23 1
  48   21   52 1
  49   22   53 1
  50   22   54 1
  51   22   55 1
  52   23   56 1
  53   23   57 1
  54   23   58 1
  55   24   25 2
  56   24   28 1
  57   25   26 1
  58   25   59 1
  59   26   27 2
  60   26   60 1
  61   27   28 1
  62   27   61 1
  63   29   30 1
  64   30   62 1
  65   30   63 1
  66   30   64 1
  67   65   66 1

#	End of record

