#	Name: ASD01816440
#	Creating user name:	WinNT
#	Creation time:	15. 06. 2019 19:35

#	Modifying user name:	WinNT
#	Modification time:	15. 06. 2019 19:35

#	Program:	/corina/corina34_cracker 3.40 0067  02.08.2006

@<TRIPOS>MOLECULE
ASD01816440
  53   58    0    0    0
SMALL
NO_CHARGES


@<TRIPOS>ATOM
   1 C1            -0.0167     1.3813     0.0096 C.ar    
   2 C2             0.0021    -0.0041     0.0020 C.ar    
   3 C3             1.1984    -0.6909    -0.0131 C.ar    
   4 C4             2.4015     0.0059    -0.0203 C.ar    
   5 C5             2.3790     1.4106    -0.0126 C.ar    
   6 C6             1.1663     2.0916     0.0022 C.ar    
   7 N7             3.6053    -0.6772    -0.0345 N.pl3   
   8 C8             4.7970    -0.0585    -0.0420 C.2     
   9 C9             4.9000     1.3103    -0.0361 C.2     
  10 C10            3.6670     2.1302    -0.0205 C.2     
  11 C11            5.9971     2.2730    -0.0419 C.2     
  12 N12            5.4245     3.4961    -0.0311 N.am    
  13 N13            4.0323     3.3799    -0.0183 N.2     
  14 C14            6.1240     4.7043    -0.0320 C.ar    
  15 O15            7.1913     2.0230    -0.0535 O.2     
  16 C16            3.5779    -2.1419    -0.0411 C.3     
  17 C17            3.5555    -2.6375    -1.4641 C.ar    
  18 C18            4.7434    -2.8868    -2.1267 C.ar    
  19 C19            4.7261    -3.3406    -3.4310 C.ar    
  20 C20            3.5145    -3.5469    -4.0768 C.ar    
  21 C21            2.3235    -3.2962    -3.4087 C.ar    
  22 C22            2.3471    -2.8474    -2.1027 C.ar    
  23 N23            3.4937    -4.0071    -5.4008 N.pl3   
  24 C24            2.3888    -4.2483    -6.1422 C.2     
  25 C25            2.7955    -4.6777    -7.3593 C.2     
  26 C26            4.1945    -4.7000    -7.3630 C.2     
  27 N27            4.6138    -4.2927    -6.1920 N.2     
  28 N28            7.4474     4.6960    -0.0497 N.ar    
  29 C29            8.1468     5.8143    -0.0517 C.ar    
  30 C30            7.5181     7.0441    -0.0347 C.ar    
  31 C31            6.1314     7.0985    -0.0159 C.ar    
  32 C32            5.4234     5.9071    -0.0201 C.ar    
  33 F33            4.0725     5.9130    -0.0072 F       
  34 C34            5.4121     8.4226     0.0034 C.3     
  35 H35           -0.9602     1.9068     0.0169 H       
  36 H36           -0.9288    -0.5516     0.0083 H       
  37 H37            1.2004    -1.7709    -0.0189 H       
  38 H38            1.1506     3.1715     0.0077 H       
  39 H39            5.6983    -0.6536    -0.0527 H       
  40 H40            4.4656    -2.5242     0.4629 H       
  41 H41            2.6860    -2.4909     0.4793 H       
  42 H42            5.6856    -2.7261    -1.6238 H       
  43 H43            5.6541    -3.5344    -3.9483 H       
  44 H44            1.3794    -3.4554    -3.9086 H       
  45 H45            1.4210    -2.6522    -1.5825 H       
  46 H46            1.3657    -4.1216    -5.8206 H       
  47 H47            2.1535    -4.9544    -8.1826 H       
  48 H48            4.8207    -4.9978    -8.1911 H       
  49 H49            9.2257     5.7678    -0.0664 H       
  50 H50            8.0998     7.9541    -0.0358 H       
  51 H51            5.2250     8.7494    -1.0195 H       
  52 H52            4.4636     8.3132     0.5291 H       
  53 H53            6.0275     9.1629     0.5145 H       
@<TRIPOS>BOND
   1    1    2 ar
   2    1    6 ar
   3    1   35 1
   4    2    3 ar
   5    2   36 1
   6    3    4 ar
   7    3   37 1
   8    4    5 ar
   9    4    7 1
  10    5    6 ar
  11    5   10 1
  12    6   38 1
  13    7    8 1
  14    7   16 1
  15    8    9 2
  16    8   39 1
  17    9   10 1
  18    9   11 1
  19   10   13 2
  20   11   12 am
  21   11   15 2
  22   12   13 1
  23   12   14 1
  24   14   32 ar
  25   14   28 ar
  26   16   17 1
  27   16   40 1
  28   16   41 1
  29   17   18 ar
  30   17   22 ar
  31   18   19 ar
  32   18   42 1
  33   19   20 ar
  34   19   43 1
  35   20   21 ar
  36   20   23 1
  37   21   22 ar
  38   21   44 1
  39   22   45 1
  40   23   24 1
  41   23   27 1
  42   24   25 2
  43   24   46 1
  44   25   26 1
  45   25   47 1
  46   26   27 2
  47   26   48 1
  48   28   29 ar
  49   29   30 ar
  50   29   49 1
  51   30   31 ar
  52   30   50 1
  53   31   32 ar
  54   31   34 1
  55   32   33 1
  56   34   51 1
  57   34   52 1
  58   34   53 1

#	End of record

