#	Name: ASD03930085
#	Creating user name:	WinNT
#	Creation time:	15. 06. 2019 20:47

#	Modifying user name:	WinNT
#	Modification time:	15. 06. 2019 20:47

#	Program:	/corina/corina34_cracker 3.40 0067  02.08.2006

@<TRIPOS>MOLECULE
ASD03930085
  39   40    0    0    0
SMALL
NO_CHARGES


@<TRIPOS>ATOM
   1 C1             0.0832     1.3967    -0.5562 C.ar    
   2 C2             0.0905     0.0175    -0.5835 C.ar    
   3 C3             1.1747    -0.6817    -0.0835 C.ar    
   4 C4             2.2579    -0.0038     0.4469 C.ar    
   5 C5             2.2631     1.3754     0.4807 C.ar    
   6 C6             1.1728     2.0868    -0.0225 C.ar    
   7 C7             1.1718     3.5649     0.0100 C.2     
   8 O8             2.1260     4.1829    -0.4201 O.2     
   9 N9             0.1129     4.2271     0.5166 N.am    
  10 C10           -1.0818     3.4981     0.9639 C.3     
  11 C11           -1.5251     5.4302     2.4838 C.3     
  12 C12           -0.1924     6.0709     2.0856 C.3     
  13 C13            0.1336     5.6912     0.6377 C.3     
  14 C14           -1.3978     3.9071     2.4060 C.3     
  15 C15            1.1755    -2.1884    -0.1162 C.3     
  16 O16            1.7541    -2.6379    -1.3431 O.3     
  17 C17            1.8032    -4.0598    -1.4759 C.3     
  18 C18            2.4380    -4.4249    -2.8193 C.3     
  19 H19           -0.7617     1.9414    -0.9509 H       
  20 H20           -0.7521    -0.5177    -0.9959 H       
  21 H21            3.1011    -0.5555     0.8356 H       
  22 H22            3.1090     1.9034     0.8956 H       
  23 H23           -1.9249     3.7483     0.3200 H       
  24 H24           -0.8926     2.4255     0.9214 H       
  25 H25           -1.7749     5.7168     3.5054 H       
  26 H26           -2.3090     5.7732     1.8086 H       
  27 H27           -0.2726     7.1552     2.1625 H       
  28 H28            0.5950     5.7158     2.7504 H       
  29 H29            1.1232     6.0656     0.3757 H       
  30 H30           -0.6115     6.1237    -0.0301 H       
  31 H31           -2.3357     3.4472     2.7173 H       
  32 H32           -0.5937     3.5752     3.0628 H       
  33 H33            1.7589    -2.5697     0.7218 H       
  34 H34            0.1513    -2.5539    -0.0421 H       
  35 H35            2.3997    -4.4800    -0.6661 H       
  36 H36            0.7921    -4.4642    -1.4300 H       
  37 H37            2.4755    -5.5096    -2.9206 H       
  38 H38            1.8416    -4.0048    -3.6291 H       
  39 H39            3.4492    -4.0205    -2.8652 H       
@<TRIPOS>BOND
   1    1    2 ar
   2    1    6 ar
   3    1   19 1
   4    2    3 ar
   5    2   20 1
   6    3    4 ar
   7    3   15 1
   8    4    5 ar
   9    4   21 1
  10    5    6 ar
  11    5   22 1
  12    6    7 1
  13    7    8 2
  14    7    9 am
  15    9   10 1
  16    9   13 1
  17   10   14 1
  18   10   23 1
  19   10   24 1
  20   11   12 1
  21   11   14 1
  22   11   25 1
  23   11   26 1
  24   12   13 1
  25   12   27 1
  26   12   28 1
  27   13   29 1
  28   13   30 1
  29   14   31 1
  30   14   32 1
  31   15   16 1
  32   15   33 1
  33   15   34 1
  34   16   17 1
  35   17   18 1
  36   17   35 1
  37   17   36 1
  38   18   37 1
  39   18   38 1
  40   18   39 1

#	End of record

