#	Name: ASD01030003
#	Creating user name:	WinNT
#	Creation time:	15. 06. 2019 18:58

#	Modifying user name:	WinNT
#	Modification time:	15. 06. 2019 18:58

#	Program:	/corina/corina34_cracker 3.40 0067  02.08.2006

@<TRIPOS>MOLECULE
ASD01030003
  61   60    0    0    0
SMALL
NO_CHARGES


@<TRIPOS>ATOM
   1 S1            -0.3906     1.3390     0.1685 S.o2    
   2 O2            -0.0828    -0.0480     0.1419 O.2     
   3 O3             0.5003     2.3233     0.6750 O.2     
   4 O4            -0.7007     1.7380    -1.2672 O.3     
   5 O5            -1.6812     1.4776     0.9634 O.3     
   6 C6             8.9706     4.8392    -1.6108 C.3     
   7 C7             7.6680     4.9687    -2.4028 C.3     
   8 C8             6.5087     4.4152    -1.5718 C.3     
   9 C9             5.2061     4.5447    -2.3638 C.3     
  10 C10            4.0468     3.9912    -1.5328 C.3     
  11 C11            2.7441     4.1207    -2.3248 C.3     
  12 C12            1.5848     3.5673    -1.4937 C.3     
  13 C13            0.2822     3.6968    -2.2857 C.3     
  14 C14           -0.8772     3.1436    -1.4546 C.3     
  15 C15           -2.1965     3.3989    -2.1861 C.3     
  16 C16           -3.3640     2.9589    -1.3006 C.3     
  17 C17           -4.6834     3.2143    -2.0322 C.3     
  18 C18           -5.8509     2.7743    -1.1467 C.3     
  19 C19           -7.1702     3.0296    -1.8782 C.3     
  20 C20           -8.3378     2.5896    -0.9927 C.3     
  21 C21           -9.6571     2.8450    -1.7242 C.3     
  22 C22          -10.8247     2.4050    -0.8387 C.3     
  23 C23          -12.1440     2.6603    -1.5703 C.3     
  24 H24           -1.5941     1.2461     1.8982 H       
  25 H25            9.7965     5.2335    -2.2028 H       
  26 H26            8.8883     5.4026    -0.6814 H       
  27 H27            9.1551     3.7891    -1.3839 H       
  28 H28            7.4836     6.0187    -2.6296 H       
  29 H29            7.7503     4.4052    -3.3322 H       
  30 H30            6.6931     3.3651    -1.3449 H       
  31 H31            6.4264     4.9787    -0.6424 H       
  32 H32            5.0216     5.5948    -2.5906 H       
  33 H33            5.2884     3.9812    -3.2932 H       
  34 H34            4.2312     2.9412    -1.3059 H       
  35 H35            3.9645     4.5547    -0.6033 H       
  36 H36            2.5597     5.1708    -2.5516 H       
  37 H37            2.8264     3.5573    -3.2542 H       
  38 H38            1.7692     2.5172    -1.2669 H       
  39 H39            1.5025     4.1307    -0.5643 H       
  40 H40            0.0979     4.7468    -2.5128 H       
  41 H41            0.3644     3.1331    -3.2151 H       
  42 H42           -0.8978     3.6398    -0.4843 H       
  43 H43           -2.2891     4.4621    -2.4078 H       
  44 H44           -2.2119     2.8311    -3.1164 H       
  45 H45           -3.2714     1.8958    -1.0789 H       
  46 H46           -3.3486     3.5268    -0.3704 H       
  47 H47           -4.7760     4.2774    -2.2539 H       
  48 H48           -4.6988     2.6464    -2.9624 H       
  49 H49           -5.7583     1.7111    -0.9250 H       
  50 H50           -5.8355     3.3421    -0.2164 H       
  51 H51           -7.2629     4.0928    -2.0999 H       
  52 H52           -7.1857     2.4618    -2.8085 H       
  53 H53           -8.2451     1.5265    -0.7710 H       
  54 H54           -8.3224     3.1575    -0.0624 H       
  55 H55           -9.7498     3.9081    -1.9459 H       
  56 H56           -9.6726     2.2771    -2.6545 H       
  57 H57          -10.7320     1.3418    -0.6170 H       
  58 H58          -10.8093     2.9728     0.0915 H       
  59 H59          -12.9758     2.3469    -0.9394 H       
  60 H60          -12.2367     3.7235    -1.7920 H       
  61 H61          -12.1594     2.0925    -2.5005 H       
@<TRIPOS>BOND
   1    1    2 2
   2    1    3 2
   3    1    4 1
   4    1    5 1
   5    4   14 1
   6    5   24 1
   7    6    7 1
   8    6   25 1
   9    6   26 1
  10    6   27 1
  11    7    8 1
  12    7   28 1
  13    7   29 1
  14    8    9 1
  15    8   30 1
  16    8   31 1
  17    9   10 1
  18    9   32 1
  19    9   33 1
  20   10   11 1
  21   10   34 1
  22   10   35 1
  23   11   12 1
  24   11   36 1
  25   11   37 1
  26   12   13 1
  27   12   38 1
  28   12   39 1
  29   13   14 1
  30   13   40 1
  31   13   41 1
  32   14   15 1
  33   14   42 1
  34   15   16 1
  35   15   43 1
  36   15   44 1
  37   16   17 1
  38   16   45 1
  39   16   46 1
  40   17   18 1
  41   17   47 1
  42   17   48 1
  43   18   19 1
  44   18   49 1
  45   18   50 1
  46   19   20 1
  47   19   51 1
  48   19   52 1
  49   20   21 1
  50   20   53 1
  51   20   54 1
  52   21   22 1
  53   21   55 1
  54   21   56 1
  55   22   23 1
  56   22   57 1
  57   22   58 1
  58   23   59 1
  59   23   60 1
  60   23   61 1

#	End of record

