#	Name: ASD01880760
#	Creating user name:	WinNT
#	Creation time:	15. 06. 2019 19:41

#	Modifying user name:	WinNT
#	Modification time:	15. 06. 2019 19:41

#	Program:	/corina/corina34_cracker 3.40 0067  02.08.2006

@<TRIPOS>MOLECULE
ASD01880760
  52   55    0    0    0
SMALL
NO_CHARGES


@<TRIPOS>ATOM
   1 N1             0.0057     1.3279    -0.1717 N.ar    
   2 C2             0.0070     0.0116    -0.1811 C.ar    
   3 N3             1.1146    -0.6851    -0.0187 N.ar    
   4 C4             2.2799    -0.0831     0.1613 C.ar    
   5 C5             2.3297     1.3000     0.1784 C.ar    
   6 C6             1.1375     2.0076     0.0039 C.ar    
   7 C7             3.6357     2.0240     0.3811 C.3     
   8 O8             4.6666     1.0762     0.6655 O.3     
   9 C9             5.9142     1.5673     0.8755 C.ar    
  10 C10            6.9646     0.6993     1.1573 C.ar    
  11 C11            8.2262     1.1973     1.3691 C.ar    
  12 C12            8.4638     2.5742     1.3035 C.ar    
  13 C13            7.4053     3.4417     1.0197 C.ar    
  14 C14            6.1427     2.9363     0.8033 C.ar    
  15 C15            9.5515     0.5513     1.6877 C.3     
  16 N16           10.5251     1.6440     1.7929 N.am    
  17 C17            9.8934     2.8093     1.5706 C.2     
  18 O18           10.4261     3.9021     1.5871 O.2     
  19 C19           -1.2949    -0.7202    -0.3827 C.3     
  20 C20            7.6463     4.9275     0.9464 C.3     
  21 C21            1.1328     3.4902     0.0130 C.ar    
  22 C22            2.1006     4.1947    -0.7034 C.ar    
  23 C23            2.0974     5.5716    -0.6953 C.ar    
  24 C24            1.1241     6.2632     0.0304 C.ar    
  25 C25            0.1550     5.5565     0.7470 C.ar    
  26 C26            0.1570     4.1796     0.7332 C.ar    
  27 C27            1.1201     7.6951     0.0399 C.1     
  28 N28            1.1169     8.8311     0.0475 N.1     
  29 C29           12.7303     1.3204     0.7860 C.3     
  30 C30           11.9511     1.4902     2.0917 C.3     
  31 H31            3.1807    -0.6641     0.2936 H       
  32 H32            3.8893     2.5761    -0.5239 H       
  33 H33            3.5404     2.7186     1.2157 H       
  34 H34            6.7875    -0.3648     1.2097 H       
  35 H35            5.3252     3.6071     0.5837 H       
  36 H36            9.4884     0.0133     2.6336 H       
  37 H37            9.8383    -0.1303     0.8869 H       
  38 H38           -1.4556    -0.8892    -1.4474 H       
  39 H39           -1.2572    -1.6783     0.1357 H       
  40 H40           -2.1135    -0.1223     0.0179 H       
  41 H41            7.9062     5.2034    -0.0755 H       
  42 H42            6.7425     5.4574     1.2472 H       
  43 H43            8.4644     5.1963     1.6146 H       
  44 H44            2.8528     3.6599    -1.2642 H       
  45 H45            2.8472     6.1168    -1.2493 H       
  46 H46           -0.5976     6.0900     1.3085 H       
  47 H47           -0.5920     3.6331     1.2871 H       
  48 H48           12.3714     0.4350     0.2612 H       
  49 H49           12.5833     2.1993     0.1582 H       
  50 H50           13.7912     1.2060     1.0083 H       
  51 H51           12.3099     2.3756     2.6164 H       
  52 H52           12.0980     0.6113     2.7194 H       
@<TRIPOS>BOND
   1    1    2 ar
   2    1    6 ar
   3    2    3 ar
   4    2   19 1
   5    3    4 ar
   6    4    5 ar
   7    4   31 1
   8    5    6 ar
   9    5    7 1
  10    6   21 1
  11    7    8 1
  12    7   32 1
  13    7   33 1
  14    8    9 1
  15    9   10 ar
  16    9   14 ar
  17   10   11 ar
  18   10   34 1
  19   11   12 ar
  20   11   15 1
  21   12   13 ar
  22   12   17 1
  23   13   14 ar
  24   13   20 1
  25   14   35 1
  26   15   16 1
  27   15   36 1
  28   15   37 1
  29   16   17 am
  30   16   30 1
  31   17   18 2
  32   19   38 1
  33   19   39 1
  34   19   40 1
  35   20   41 1
  36   20   42 1
  37   20   43 1
  38   21   22 ar
  39   21   26 ar
  40   22   23 ar
  41   22   44 1
  42   23   24 ar
  43   23   45 1
  44   24   25 ar
  45   24   27 1
  46   25   26 ar
  47   25   46 1
  48   26   47 1
  49   27   28 3
  50   29   30 1
  51   29   48 1
  52   29   49 1
  53   29   50 1
  54   30   51 1
  55   30   52 1

#	End of record

