#	Name: ASD01420010
#	Creating user name:	WinNT
#	Creation time:	15. 06. 2019 19:20

#	Modifying user name:	WinNT
#	Modification time:	15. 06. 2019 19:20

#	Program:	/corina/corina34_cracker 3.40 0067  02.08.2006

@<TRIPOS>MOLECULE
ASD01420010
  52   54    0    0    0
SMALL
NO_CHARGES


@<TRIPOS>ATOM
   1 C1            -0.0179     1.4673     0.0101 C.2     
   2 C2             0.0021    -0.0041     0.0020 C.ar    
   3 C3             1.2256    -0.6924    -0.0134 C.ar    
   4 C4             1.2350    -2.0763    -0.0204 C.ar    
   5 C5             0.0388    -2.7789    -0.0127 C.ar    
   6 C6            -1.1749    -2.0982     0.0020 C.ar    
   7 C7            -1.1979    -0.7229     0.0155 C.ar    
   8 O8             1.0263     2.0893     0.0035 O.2     
   9 O9            -1.1942     2.1253     0.0193 O.3     
  10 C10           -2.4688    -2.8707     0.0093 C.3     
  11 C11           -3.2652    -2.5199     1.2677 C.3     
  12 C12           -3.2876    -2.5057    -1.2306 C.3     
  13 O13            0.0523    -4.1359    -0.0201 O.3     
  14 C14            1.3318    -4.7719    -0.0358 C.3     
  15 C15            1.1492    -6.2678    -0.0420 C.ar    
  16 C16            1.0540    -6.9474    -1.2420 C.ar    
  17 C17            0.8865    -8.3196    -1.2477 C.ar    
  18 C18            0.8146    -9.0121    -0.0535 C.ar    
  19 C19            0.9107    -8.3326     1.1464 C.ar    
  20 C20            1.0826    -6.9609     1.1521 C.ar    
  21 O21            2.3942    -0.0037    -0.0217 O.3     
  22 C22            3.5995    -0.7711    -0.0373 C.3     
  23 C23            4.7863     0.1576    -0.0447 C.ar    
  24 C24            5.3425     0.5779     1.1489 C.ar    
  25 C25            6.4311     1.4298     1.1421 C.ar    
  26 C26            6.9638     1.8611    -0.0584 C.ar    
  27 C27            6.4081     1.4400    -1.2521 C.ar    
  28 C28            5.3222     0.5846    -1.2453 C.ar    
  29 H29            2.1741    -2.6096    -0.0322 H       
  30 H30           -2.1418    -0.1984     0.0318 H       
  31 H31           -1.1567     3.0915     0.0243 H       
  32 H32           -2.2541    -3.9393     0.0013 H       
  33 H33           -2.6819    -2.7799     2.1511 H       
  34 H34           -3.4800    -1.4513     1.2758 H       
  35 H35           -4.2011    -3.0787     1.2730 H       
  36 H36           -2.7203    -2.7556    -2.1271 H       
  37 H37           -4.2235    -3.0644    -1.2254 H       
  38 H38           -3.5024    -1.4371    -1.2226 H       
  39 H39            1.8774    -4.4687    -0.9294 H       
  40 H40            1.8944    -4.4782     0.8505 H       
  41 H41            1.1102    -6.4064    -2.1750 H       
  42 H42            0.8114    -8.8505    -2.1852 H       
  43 H43            0.6829   -10.0840    -0.0580 H       
  44 H44            0.8541    -8.8736     2.0794 H       
  45 H45            1.1613    -6.4305     2.0896 H       
  46 H46            3.6388    -1.4039     0.8494 H       
  47 H47            3.6211    -1.3955    -0.9305 H       
  48 H48            4.9263     0.2410     2.0868 H       
  49 H49            6.8652     1.7588     2.0747 H       
  50 H50            7.8138     2.5272    -0.0637 H       
  51 H51            6.8241     1.7772    -2.1900 H       
  52 H52            4.8904     0.2527    -2.1779 H       
@<TRIPOS>BOND
   1    1    2 1
   2    1    8 2
   3    1    9 1
   4    2    3 ar
   5    2    7 ar
   6    3    4 ar
   7    3   21 1
   8    4    5 ar
   9    4   29 1
  10    5    6 ar
  11    5   13 1
  12    6    7 ar
  13    6   10 1
  14    7   30 1
  15    9   31 1
  16   10   11 1
  17   10   12 1
  18   10   32 1
  19   11   33 1
  20   11   34 1
  21   11   35 1
  22   12   36 1
  23   12   37 1
  24   12   38 1
  25   13   14 1
  26   14   15 1
  27   14   39 1
  28   14   40 1
  29   15   16 ar
  30   15   20 ar
  31   16   17 ar
  32   16   41 1
  33   17   18 ar
  34   17   42 1
  35   18   19 ar
  36   18   43 1
  37   19   20 ar
  38   19   44 1
  39   20   45 1
  40   21   22 1
  41   22   23 1
  42   22   46 1
  43   22   47 1
  44   23   24 ar
  45   23   28 ar
  46   24   25 ar
  47   24   48 1
  48   25   26 ar
  49   25   49 1
  50   26   27 ar
  51   26   50 1
  52   27   28 ar
  53   27   51 1
  54   28   52 1

#	End of record

