#	Name: ASD01150095
#	Creating user name:	WinNT
#	Creation time:	15. 06. 2019 19:03

#	Modifying user name:	WinNT
#	Modification time:	15. 06. 2019 19:03

#	Program:	/corina/corina34_cracker 3.40 0067  02.08.2006

@<TRIPOS>MOLECULE
ASD01150095
  37   39    0    0    0
SMALL
NO_CHARGES


@<TRIPOS>ATOM
   1 N1            -0.0166     1.3763     0.0096 N.pl3   
   2 C2             0.0021    -0.0041     0.0020 C.2     
   3 C3             1.3409    -0.3746    -0.0128 C.2     
   4 N4             2.0626     0.7491    -0.0136 N.2     
   5 C5             1.2663     1.7875    -0.0004 C.2     
   6 C6            -0.9895    -1.0086     0.0057 C.2     
   7 N7            -0.6144    -2.3047    -0.0052 N.am    
   8 C8             0.6849    -2.6490    -0.0191 C.2     
   9 N9             1.6616    -1.7224    -0.0235 N.am    
  10 O10           -2.1700    -0.7090     0.0190 O.2     
  11 C11            3.0658    -2.1400    -0.0386 C.3     
  12 C12            3.5412    -2.2781    -1.4863 C.3     
  13 C13            5.0076    -2.7141    -1.5022 C.3     
  14 O14            0.9856    -3.8272    -0.0282 O.2     
  15 C15           -1.6385    -3.3523    -0.0015 C.3     
  16 C16           -2.0031    -3.7034    -1.4210 C.ar    
  17 C17           -1.3141    -4.7014    -2.0846 C.ar    
  18 C18           -1.6480    -5.0239    -3.3865 C.ar    
  19 C19           -2.6720    -4.3477    -4.0254 C.ar    
  20 C20           -3.3612    -3.3490    -3.3607 C.ar    
  21 C21           -3.0301    -3.0313    -2.0570 C.ar    
  22 Cl22          -3.0917    -4.7518    -5.6608 Cl      
  23 H23           -0.8041     1.9427     0.0166 H       
  24 H24            1.5888     2.8182     0.0015 H       
  25 H25            3.6725    -1.3931     0.4734 H       
  26 H26            3.1651    -3.0992     0.4695 H       
  27 H27            2.9345    -3.0250    -1.9983 H       
  28 H28            3.4419    -1.3189    -1.9944 H       
  29 H29            5.6144    -1.9672    -0.9902 H       
  30 H30            5.1070    -3.6734    -0.9941 H       
  31 H31            5.3463    -2.8125    -2.5335 H       
  32 H32           -1.2512    -4.2371     0.5036 H       
  33 H33           -2.5239    -2.9929     0.5228 H       
  34 H34           -0.5145    -5.2289    -1.5858 H       
  35 H35           -1.1094    -5.8033    -3.9050 H       
  36 H36           -4.1607    -2.8208    -3.8590 H       
  37 H37           -3.5680    -2.2517    -1.5380 H       
@<TRIPOS>BOND
   1    1    2 1
   2    1    5 1
   3    1   23 1
   4    2    3 2
   5    2    6 1
   6    3    4 1
   7    3    9 1
   8    4    5 2
   9    5   24 1
  10    6    7 am
  11    6   10 2
  12    7    8 am
  13    7   15 1
  14    8    9 am
  15    8   14 2
  16    9   11 1
  17   11   12 1
  18   11   25 1
  19   11   26 1
  20   12   13 1
  21   12   27 1
  22   12   28 1
  23   13   29 1
  24   13   30 1
  25   13   31 1
  26   15   16 1
  27   15   32 1
  28   15   33 1
  29   16   17 ar
  30   16   21 ar
  31   17   18 ar
  32   17   34 1
  33   18   19 ar
  34   18   35 1
  35   19   20 ar
  36   19   22 1
  37   20   21 ar
  38   20   36 1
  39   21   37 1

#	End of record

