#	Name: ASD01410277
#	Creating user name:	WinNT
#	Creation time:	15. 06. 2019 19:17

#	Modifying user name:	WinNT
#	Modification time:	15. 06. 2019 19:17

#	Program:	/corina/corina34_cracker 3.40 0067  02.08.2006

@<TRIPOS>MOLECULE
ASD01410277
  52   56    0    0    0
SMALL
NO_CHARGES


@<TRIPOS>ATOM
   1 C1            -0.0168     1.3855     0.0097 C.ar    
   2 C2             0.0021    -0.0041     0.0020 C.ar    
   3 C3            -1.1863    -0.7125     0.0096 C.ar    
   4 C4            -2.4035    -0.0209     0.0249 C.ar    
   5 C5            -2.4214     1.3841     0.0326 C.ar    
   6 C6            -1.2194     2.0762     0.0306 C.ar    
   7 C7            -3.8109    -0.4480     0.0355 C.2     
   8 C8            -4.5659     0.7560     0.0490 C.2     
   9 O9            -3.7058     1.8020     0.0467 O.3     
  10 O10           -4.2385    -1.5908     0.0330 O.2     
  11 C11           -5.9247     0.8432     0.0613 C.2     
  12 C12           -6.5731     2.1535     0.0744 C.2     
  13 O13            1.1534     2.0736     0.0022 O.3     
  14 O14           -1.1721    -2.0693     0.0017 O.3     
  15 C15           -5.9548     3.3737     0.0700 C.2     
  16 C16           -8.0240     2.4214     0.0885 C.ar    
  17 C17           -8.1578     3.8188     0.0977 C.ar    
  18 N18           -6.8876     4.3583     0.0859 N.pl3   
  19 C19           -6.5888     5.7925     0.0905 C.3     
  20 C20           -9.1563     1.6112     0.0937 C.ar    
  21 C21          -10.4077     2.1878     0.1079 C.ar    
  22 C22          -10.5419     3.5686     0.1165 C.ar    
  23 C23           -9.4298     4.3820     0.1119 C.ar    
  24 C24           -6.5911     6.3093     1.5306 C.3     
  25 C25           -6.1575     7.7765     1.5466 C.3     
  26 C26           -8.0003     6.1876     2.1138 C.3     
  27 C27           -8.0027     6.7044     3.5539 C.3     
  28 C28           -7.5690     8.1716     3.5699 C.3     
  29 C29           -6.1598     8.2933     2.9867 C.3     
  30 H30            0.9447    -0.5311    -0.0102 H       
  31 H31           -1.2200     3.1561     0.0368 H       
  32 H32           -6.5235    -0.0557     0.0613 H       
  33 H33            1.4840     2.2777    -0.8833 H       
  34 H34           -1.1594    -2.4676     0.8827 H       
  35 H35           -4.8862     3.5295     0.0563 H       
  36 H36           -5.6080     5.9607    -0.3543 H       
  37 H37           -7.3456     6.3231    -0.4872 H       
  38 H38           -9.0543     0.5361     0.0863 H       
  39 H39          -11.2879     1.5620     0.1119 H       
  40 H40          -11.5275     4.0102     0.1268 H       
  41 H41           -9.5455     5.4558     0.1191 H       
  42 H42           -5.8977     5.7189     2.1296 H       
  43 H43           -5.1535     7.8632     1.1311 H       
  44 H44           -6.8509     8.3668     0.9476 H       
  45 H45           -8.6937     6.7779     1.5148 H       
  46 H46           -8.3092     5.1423     2.1025 H       
  47 H47           -9.0066     6.6177     3.9694 H       
  48 H48           -7.3093     6.1141     4.1529 H       
  49 H49           -8.2624     8.7619     2.9709 H       
  50 H50           -7.5707     8.5398     4.5958 H       
  51 H51           -5.4664     7.7030     3.5857 H       
  52 H52           -5.8509     9.3385     2.9980 H       
@<TRIPOS>BOND
   1    1    2 ar
   2    1   13 1
   3    1    6 ar
   4    2    3 ar
   5    2   30 1
   6    3    4 ar
   7    3   14 1
   8    4    5 ar
   9    4    7 1
  10    5    6 ar
  11    5    9 1
  12    6   31 1
  13    7    8 1
  14    7   10 2
  15    8    9 1
  16    8   11 2
  17   11   12 1
  18   11   32 1
  19   12   16 1
  20   12   15 2
  21   13   33 1
  22   14   34 1
  23   15   18 1
  24   15   35 1
  25   16   17 ar
  26   16   20 ar
  27   17   18 1
  28   17   23 ar
  29   18   19 1
  30   19   24 1
  31   19   36 1
  32   19   37 1
  33   20   21 ar
  34   20   38 1
  35   21   22 ar
  36   21   39 1
  37   22   23 ar
  38   22   40 1
  39   23   41 1
  40   24   25 1
  41   24   26 1
  42   24   42 1
  43   25   29 1
  44   25   43 1
  45   25   44 1
  46   26   27 1
  47   26   45 1
  48   26   46 1
  49   27   28 1
  50   27   47 1
  51   27   48 1
  52   28   29 1
  53   28   49 1
  54   28   50 1
  55   29   51 1
  56   29   52 1

#	End of record

