#	Name: ASD01028513
#	Creating user name:	WinNT
#	Creation time:	15. 06. 2019 18:57

#	Modifying user name:	WinNT
#	Modification time:	15. 06. 2019 18:57

#	Program:	/corina/corina34_cracker 3.40 0067  02.08.2006

@<TRIPOS>MOLECULE
ASD01028513
  36   39    0    0    0
SMALL
NO_CHARGES


@<TRIPOS>ATOM
   1 C1            -0.0184     1.5028     0.0103 C.ar    
   2 C2             0.0021    -0.0041     0.0020 C.3     
   3 C3             0.0225    -0.5140     1.4200 C.2     
   4 N4            -1.0572    -0.7986     2.1805 N.pl3   
   5 C5            -0.5661    -1.2288     3.3904 C.2     
   6 N6             0.7534    -1.1848     3.3054 N.2     
   7 N7             1.0902    -0.7665     2.1353 N.2     
   8 N8            -2.4357    -0.7354     1.9669 N.2     
   9 C9            -3.2742    -1.0854     2.9171 C.2     
  10 C10           -2.8012    -1.5307     4.1697 C.2     
  11 C11           -1.4649    -1.6044     4.4067 C.2     
  12 C12           -4.7351    -1.0108     2.6696 C.ar    
  13 C13           -5.2250    -0.5721     1.4361 C.ar    
  14 C14           -6.5963    -0.5210     1.2550 C.ar    
  15 C15           -7.4301    -0.9022     2.2906 C.ar    
  16 N16           -6.9384    -1.3116     3.4439 N.ar    
  17 C17           -5.6409    -1.3824     3.6607 C.ar    
  18 C18            1.1702     2.2092     0.0027 C.ar    
  19 C19           -1.2257     2.1766     0.0197 C.ar    
  20 C20           -1.2471     3.5578     0.0268 C.ar    
  21 C21           -0.0559     4.2689     0.0246 C.ar    
  22 C22            1.1542     3.5905     0.0103 C.ar    
  23 O23           -0.0743     5.6278     0.0312 O.3     
  24 H24           -0.8878    -0.3767    -0.5053 H       
  25 H25            0.8920    -0.3525    -0.5222 H       
  26 H26           -3.5020    -1.8143     4.9409 H       
  27 H27           -1.0972    -1.9450     5.3634 H       
  28 H28           -4.5507    -0.2800     0.6446 H       
  29 H29           -7.0107    -0.1868     0.3153 H       
  30 H30           -8.5006    -0.8636     2.1528 H       
  31 H31           -5.2761    -1.7231     4.6184 H       
  32 H32            2.1119     1.6806    -0.0087 H       
  33 H33           -2.1528     1.6226     0.0211 H       
  34 H34           -2.1904     4.0837     0.0338 H       
  35 H35            2.0829     4.1418     0.0086 H       
  36 H36           -0.0755     6.0168     0.9165 H       
@<TRIPOS>BOND
   1    1    2 1
   2    1   18 ar
   3    1   19 ar
   4    2    3 1
   5    2   24 1
   6    2   25 1
   7    3    4 1
   8    3    7 2
   9    4    5 1
  10    4    8 1
  11    5    6 2
  12    5   11 1
  13    6    7 1
  14    8    9 2
  15    9   10 1
  16    9   12 1
  17   10   11 2
  18   10   26 1
  19   11   27 1
  20   12   13 ar
  21   12   17 ar
  22   13   14 ar
  23   13   28 1
  24   14   15 ar
  25   14   29 1
  26   15   16 ar
  27   15   30 1
  28   16   17 ar
  29   17   31 1
  30   18   22 ar
  31   18   32 1
  32   19   20 ar
  33   19   33 1
  34   20   21 ar
  35   20   34 1
  36   21   22 ar
  37   21   23 1
  38   22   35 1
  39   23   36 1

#	End of record

