#	Name: ASD01816797
#	Creating user name:	WinNT
#	Creation time:	15. 06. 2019 19:35

#	Modifying user name:	WinNT
#	Modification time:	15. 06. 2019 19:35

#	Program:	/corina/corina34_cracker 3.40 0067  02.08.2006

@<TRIPOS>MOLECULE
ASD01816797
  60   64    0    0    0
SMALL
NO_CHARGES


@<TRIPOS>ATOM
   1 C1             0.0184     1.3380     0.0735 C.ar    
   2 C2             0.0285    -0.0557     0.0503 C.ar    
   3 C3             1.2016    -0.7467     0.0285 C.ar    
   4 C4             2.4192    -0.0479     0.0289 C.ar    
   5 C5             2.4123     1.3714     0.0520 C.ar    
   6 C6             1.1783     2.0487     0.0746 C.ar    
   7 C7             3.6519    -0.7272     0.0072 C.ar    
   8 C8             4.7981     0.0140     0.0093 C.ar    
   9 C9             4.7230     1.4146     0.0327 C.ar    
  10 N10            3.5636     2.0428     0.0525 N.ar    
  11 C11            3.7048    -2.2331    -0.0172 C.3     
  12 C12            5.9762     2.2072     0.0352 C.2     
  13 O13            7.0520     1.6427     0.0172 O.2     
  14 N14            5.9220     3.5536     0.0576 N.am    
  15 C15            7.1602     4.3367     0.0600 C.3     
  16 C16            7.6465     4.5263    -1.3782 C.3     
  17 C17            6.8976     5.7041     0.6941 C.3     
  18 C18            8.1907     6.5218     0.6967 C.3     
  19 C19            8.6771     6.7115    -0.7415 C.3     
  20 C20            8.9397     5.3441    -1.3756 C.3     
  21 O21            6.4434     5.5269     2.0374 O.3     
  22 C22            3.5862    -2.7170    -1.4395 C.ar    
  23 C23            4.7190    -2.8974    -2.2118 C.ar    
  24 C24            2.3395    -2.9910    -1.9842 C.ar    
  25 C25            2.2732    -3.4338    -3.2936 C.ar    
  26 C26            3.4556    -3.5886    -4.0170 C.ar    
  27 N27            4.6293    -3.3198    -3.4563 N.ar    
  28 C28            3.4025    -4.0609    -5.4175 C.2     
  29 N29            4.4568    -4.1645    -6.2759 N.pl3   
  30 C30            2.2886    -4.4798    -6.0893 C.2     
  31 C31            2.6770    -4.8385    -7.3797 C.2     
  32 N32            3.9677    -4.6521    -7.4946 N.2     
  33 C33            5.8506    -3.8263    -5.9774 C.3     
  34 H34           -0.9257     1.8622     0.0864 H       
  35 H35           -0.9072    -0.5950     0.0500 H       
  36 H36            1.1954    -1.8265     0.0114 H       
  37 H37            1.1526     3.1282     0.0921 H       
  38 H38            5.7601    -0.4764    -0.0066 H       
  39 H39            4.6521    -2.5703     0.4035 H       
  40 H40            2.8815    -2.6352     0.5732 H       
  41 H41            5.0632     4.0043     0.0720 H       
  42 H42            7.9220     3.8099     0.6347 H       
  43 H43            7.8336     3.5522    -1.8299 H       
  44 H44            6.8847     5.0531    -1.9528 H       
  45 H45            6.1358     6.2308     0.1195 H       
  46 H46            8.0037     7.4960     1.1485 H       
  47 H47            8.9526     5.9951     1.2714 H       
  48 H48            7.9152     7.2383    -1.3161 H       
  49 H49            9.5983     7.2941    -0.7396 H       
  50 H50            9.7015     4.8174    -0.8009 H       
  51 H51            9.2861     5.4792    -2.4002 H       
  52 H52            6.2568     6.3543     2.5019 H       
  53 H53            5.6907    -2.6888    -1.7890 H       
  54 H54            1.4410    -2.8619    -1.3990 H       
  55 H55            1.3195    -3.6566    -3.7488 H       
  56 H56            1.2855    -4.5250    -5.6914 H       
  57 H57            2.0228    -5.2108    -8.1542 H       
  58 H58            6.3339    -4.6737    -5.4910 H       
  59 H59            6.3742    -3.5923    -6.9043 H       
  60 H60            5.8807    -2.9614    -5.3147 H       
@<TRIPOS>BOND
   1    1    2 ar
   2    1    6 ar
   3    1   34 1
   4    2    3 ar
   5    2   35 1
   6    3    4 ar
   7    3   36 1
   8    4    5 ar
   9    4    7 ar
  10    5    6 ar
  11    5   10 ar
  12    6   37 1
  13    7    8 ar
  14    7   11 1
  15    8    9 ar
  16    8   38 1
  17    9   10 ar
  18    9   12 1
  19   11   22 1
  20   11   39 1
  21   11   40 1
  22   12   13 2
  23   12   14 am
  24   14   15 1
  25   14   41 1
  26   15   16 1
  27   15   17 1
  28   15   42 1
  29   16   20 1
  30   16   43 1
  31   16   44 1
  32   17   18 1
  33   17   21 1
  34   17   45 1
  35   18   19 1
  36   18   46 1
  37   18   47 1
  38   19   20 1
  39   19   48 1
  40   19   49 1
  41   20   50 1
  42   20   51 1
  43   21   52 1
  44   22   23 ar
  45   22   24 ar
  46   23   27 ar
  47   23   53 1
  48   24   25 ar
  49   24   54 1
  50   25   26 ar
  51   25   55 1
  52   26   27 ar
  53   26   28 1
  54   28   29 1
  55   28   30 2
  56   29   33 1
  57   29   32 1
  58   30   31 1
  59   30   56 1
  60   31   32 2
  61   31   57 1
  62   33   58 1
  63   33   59 1
  64   33   60 1

#	End of record

