#	Name: ASD08070161
#	Creating user name:	WinNT
#	Creation time:	15. 06. 2019 21:14

#	Modifying user name:	WinNT
#	Modification time:	15. 06. 2019 21:14

#	Program:	/corina/corina34_cracker 3.40 0067  02.08.2006

@<TRIPOS>MOLECULE
ASD08070161
  39   41    0    0    0
SMALL
NO_CHARGES


@<TRIPOS>ATOM
   1 C1            -0.0369     1.3083    -0.2111 C.ar    
   2 C2             0.0240     0.0043     0.2458 C.ar    
   3 C3             1.2506    -0.6071     0.4517 C.ar    
   4 C4             2.4202     0.0846     0.2015 C.ar    
   5 C5             2.3632     1.4007    -0.2597 C.ar    
   6 C6             1.1242     2.0092    -0.4649 C.ar    
   7 N7             3.5567     3.4541    -0.8549 N.am    
   8 C8             3.6106     2.1474    -0.5292 C.2     
   9 C9             5.3503     3.8201     1.2647 C.ar    
  10 C10            5.3672     4.6876     0.1800 C.ar    
  11 C11            4.7927     4.1939    -1.1220 C.3     
  12 C12            5.8677     4.2101     2.4824 C.ar    
  13 C13            6.4097     5.4741     2.6249 C.ar    
  14 C14            6.4263     6.3375     1.5493 C.ar    
  15 C15            5.9019     5.9481     0.3233 C.ar    
  16 C16            5.9383     6.9463    -0.8042 C.3     
  17 C17            5.7381     6.2472    -2.1473 C.3     
  18 C18            4.4871     5.3658    -2.0526 C.3     
  19 O19            4.6846     1.5828    -0.4569 O.2     
  20 C20            3.7539    -0.5800     0.4263 C.3     
  21 F21            1.3028    -1.8812     0.8981 F       
  22 H22           -0.9959     1.7776    -0.3738 H       
  23 H23           -0.8879    -0.5395     0.4433 H       
  24 H24            1.0743     3.0274    -0.8216 H       
  25 H25            2.6997     3.9046    -0.9126 H       
  26 H26            4.9246     2.8336     1.1550 H       
  27 H27            5.5114     3.5310    -1.6037 H       
  28 H28            5.8493     3.5307     3.3217 H       
  29 H29            6.8183     5.7845     3.5752 H       
  30 H30            6.8502     7.3245     1.6612 H       
  31 H31            5.1459     7.6807    -0.6597 H       
  32 H32            6.9027     7.4541    -0.8036 H       
  33 H33            5.6041     6.9916    -2.9321 H       
  34 H34            6.6069     5.6285    -2.3721 H       
  35 H35            4.2267     4.9905    -3.0422 H       
  36 H36            3.6578     5.9476    -1.6502 H       
  37 H37            4.1256    -0.9776    -0.5181 H       
  38 H38            4.4625     0.1502     0.8171 H       
  39 H39            3.6383    -1.3935     1.1426 H       
@<TRIPOS>BOND
   1    1    2 ar
   2    1    6 ar
   3    1   22 1
   4    2    3 ar
   5    2   23 1
   6    3    4 ar
   7    3   21 1
   8    4    5 ar
   9    4   20 1
  10    5    6 ar
  11    5    8 1
  12    6   24 1
  13    7    8 am
  14    7   11 1
  15    7   25 1
  16    8   19 2
  17    9   10 ar
  18    9   12 ar
  19    9   26 1
  20   10   11 1
  21   10   15 ar
  22   11   18 1
  23   11   27 1
  24   12   13 ar
  25   12   28 1
  26   13   14 ar
  27   13   29 1
  28   14   15 ar
  29   14   30 1
  30   15   16 1
  31   16   17 1
  32   16   31 1
  33   16   32 1
  34   17   18 1
  35   17   33 1
  36   17   34 1
  37   18   35 1
  38   18   36 1
  39   20   37 1
  40   20   38 1
  41   20   39 1

#	End of record

