#	Name: ASD03090354
#	Creating user name:	WinNT
#	Creation time:	15. 06. 2019 20:28

#	Modifying user name:	WinNT
#	Modification time:	15. 06. 2019 20:28

#	Program:	/corina/corina34_cracker 3.40 0067  02.08.2006

@<TRIPOS>MOLECULE
ASD03090354
  54   57    0    0    0
SMALL
NO_CHARGES


@<TRIPOS>ATOM
   1 N1             0.4475     1.5129     1.4717 N.ar    
   2 C2             1.5507     2.1884     1.2136 C.ar    
   3 C3             2.7232     1.5349     0.8936 C.ar    
   4 C4             2.7292     0.1368     0.8459 C.ar    
   5 C5             1.5366    -0.5386     1.1272 C.ar    
   6 C6             0.4098     0.1947     1.4377 C.ar    
   7 C7             3.9628    -0.6074     0.5069 C.2     
   8 N8             5.7411    -3.4558    -0.5311 N.pl3   
   9 C9             4.8136    -4.4463    -0.8744 C.ar    
  10 C10            3.5972    -4.0917    -1.4418 C.ar    
  11 C11            2.6799    -5.0723    -1.7811 C.ar    
  12 C12            2.9802    -6.4129    -1.5523 C.ar    
  13 C13            4.1949    -6.7627    -0.9853 C.ar    
  14 C14            5.1124    -5.7843    -0.6528 C.ar    
  15 N15            4.0269    -1.8634     0.1130 N.2     
  16 C16            5.2982    -2.2023    -0.1050 C.2     
  17 N17            6.0666    -1.1670     0.1465 N.2     
  18 N18            5.2219    -0.1169     0.5409 N.pl3   
  19 C19            5.6257     1.2391     0.9211 C.3     
  20 C20            5.7292     2.1107    -0.3320 C.3     
  21 O21            1.4373    -4.9927    -2.3406 O.3     
  22 C22            1.1492    -6.3165    -2.8280 C.3     
  23 O23            1.9245    -7.1734    -1.9691 O.3     
  24 F24           -0.2151    -6.6001    -2.7034 F       
  25 F25            1.5611    -6.4511    -4.1582 F       
  26 C26            1.5303     3.6942     1.2685 C.3     
  27 C27           -0.8814    -0.5200     1.7428 C.3     
  28 C28            6.1446     3.5055     0.0591 C.2     
  29 O29            6.3388     3.7758     1.2254 O.2     
  30 N30            6.3004     4.4526    -0.8871 N.am    
  31 C31            6.7042     5.8085    -0.5068 C.3     
  32 C32            6.0658     4.1261    -2.2959 C.3     
  33 H33            3.6225     2.0944     0.6828 H       
  34 H34            1.4984    -1.6176     1.1009 H       
  35 H35            6.6916    -3.6404    -0.5892 H       
  36 H36            3.3661    -3.0515    -1.6181 H       
  37 H37            4.4274    -7.8023    -0.8076 H       
  38 H38            6.0585    -6.0598    -0.2108 H       
  39 H39            4.8839     1.6627     1.5981 H       
  40 H40            6.5943     1.2033     1.4198 H       
  41 H41            6.4710     1.6871    -1.0090 H       
  42 H42            4.7606     2.1465    -0.8307 H       
  43 H43            1.7783     4.0244     2.2773 H       
  44 H44            2.2613     4.0934     0.5655 H       
  45 H45            0.5363     4.0540     1.0026 H       
  46 H46           -0.9395    -0.7249     2.8118 H       
  47 H47           -1.7225     0.1069     1.4467 H       
  48 H48           -0.9161    -1.4591     1.1905 H       
  49 H49            7.7919     5.8795    -0.5155 H       
  50 H50            6.2878     6.5239    -1.2159 H       
  51 H51            6.3335     6.0308     0.4938 H       
  52 H52            5.0364     3.7918    -2.4248 H       
  53 H53            6.2398     5.0111    -2.9078 H       
  54 H54            6.7468     3.3323    -2.6031 H       
@<TRIPOS>BOND
   1    1    2 ar
   2    1    6 ar
   3    2    3 ar
   4    2   26 1
   5    3    4 ar
   6    3   33 1
   7    4    5 ar
   8    4    7 1
   9    5    6 ar
  10    5   34 1
  11    6   27 1
  12    7   15 2
  13    7   18 1
  14    8    9 1
  15    8   16 1
  16    8   35 1
  17    9   10 ar
  18    9   14 ar
  19   10   11 ar
  20   10   36 1
  21   11   12 ar
  22   11   21 1
  23   12   13 ar
  24   12   23 1
  25   13   14 ar
  26   13   37 1
  27   14   38 1
  28   15   16 1
  29   16   17 2
  30   17   18 1
  31   18   19 1
  32   19   20 1
  33   19   39 1
  34   19   40 1
  35   20   28 1
  36   20   41 1
  37   20   42 1
  38   21   22 1
  39   22   23 1
  40   22   24 1
  41   22   25 1
  42   26   43 1
  43   26   44 1
  44   26   45 1
  45   27   46 1
  46   27   47 1
  47   27   48 1
  48   28   29 2
  49   28   30 am
  50   30   31 1
  51   30   32 1
  52   31   49 1
  53   31   50 1
  54   31   51 1
  55   32   52 1
  56   32   53 1
  57   32   54 1

#	End of record

