#	Name: ASD01230837
#	Creating user name:	WinNT
#	Creation time:	15. 06. 2019 19:15

#	Modifying user name:	WinNT
#	Modification time:	15. 06. 2019 19:15

#	Program:	/corina/corina34_cracker 3.40 0067  02.08.2006

@<TRIPOS>MOLECULE
ASD01230837
  48   51    0    0    0
SMALL
NO_CHARGES


@<TRIPOS>ATOM
   1 C1             0.9970    -0.1173    -0.6752 C.3     
   2 C2             1.4222    -1.5082    -0.1966 C.3     
   3 C3             0.3041    -2.5230    -0.3890 C.3     
   4 C4            -1.0793    -1.8897    -0.3378 C.3     
   5 N5            -1.0813    -0.6800     0.4880 N.pl3   
   6 C6            -0.1831     0.3090     0.1812 C.2     
   7 C7            -1.9917    -0.5554     1.6235 C.3     
   8 C8            -2.7629     0.7611     1.5167 C.3     
   9 S9            -1.5894     2.1343     1.3714 S.o2    
  10 N10           -0.3069     1.5277     0.5349 N.am    
  11 C11            2.1350     0.8554    -0.5022 C.ar    
  12 O12           -2.1120     3.1452     0.5204 O.2     
  13 O13           -1.0496     2.4621     2.6444 O.2     
  14 C14            2.6529     1.5143    -1.6021 C.ar    
  15 C15            3.6957     2.4068    -1.4462 C.ar    
  16 C16            4.2234     2.6418    -0.1846 C.ar    
  17 C17            3.7018     1.9793     0.9174 C.ar    
  18 C18            2.6555     1.0918     0.7567 C.ar    
  19 O19            5.2495     3.5189    -0.0287 O.3     
  20 C20            5.6568     4.2243    -1.1166 C.ar    
  21 C21            5.0637     5.4424    -1.4168 C.ar    
  22 C22            5.4790     6.1577    -2.5229 C.ar    
  23 C23            6.4857     5.6602    -3.3318 C.ar    
  24 C24            7.0780     4.4457    -3.0345 C.ar    
  25 C25            6.6700     3.7303    -1.9253 C.ar    
  26 C26            4.8352     7.4805    -2.8494 C.3     
  27 F27            3.8531     7.7692    -1.8958 F       
  28 F28            5.8065     8.4873    -2.8378 F       
  29 F29            4.2484     7.4132    -4.1176 F       
  30 Cl30           7.0055     6.5609    -4.7218 Cl      
  31 H31            0.7008    -0.1595    -1.7233 H       
  32 H32            2.2968    -1.8287    -0.7628 H       
  33 H33            1.6812    -1.4583     0.8610 H       
  34 H34            0.4329    -3.0094    -1.3559 H       
  35 H35            0.3750    -3.2775     0.3944 H       
  36 H36           -1.3912    -1.6315    -1.3497 H       
  37 H37           -1.7852    -2.6078     0.0797 H       
  38 H38           -2.6938    -1.3892     1.6195 H       
  39 H39           -1.4193    -0.5670     2.5511 H       
  40 H40           -3.4045     0.7363     0.6359 H       
  41 H41           -3.3742     0.8980     2.4087 H       
  42 H42            2.2420     1.3307    -2.5838 H       
  43 H43            4.1001     2.9208    -2.3056 H       
  44 H44            4.1110     2.1603     1.9003 H       
  45 H45            2.2492     0.5759     1.6141 H       
  46 H46            4.2775     5.8306    -0.7862 H       
  47 H47            7.8632     4.0591    -3.6672 H       
  48 H48            7.1326     2.7823    -1.6935 H       
@<TRIPOS>BOND
   1    1    2 1
   2    1   11 1
   3    1    6 1
   4    1   31 1
   5    2    3 1
   6    2   32 1
   7    2   33 1
   8    3    4 1
   9    3   34 1
  10    3   35 1
  11    4    5 1
  12    4   36 1
  13    4   37 1
  14    5    6 1
  15    5    7 1
  16    6   10 2
  17    7    8 1
  18    7   38 1
  19    7   39 1
  20    8    9 1
  21    8   40 1
  22    8   41 1
  23    9   10 am
  24    9   12 2
  25    9   13 2
  26   11   14 ar
  27   11   18 ar
  28   14   15 ar
  29   14   42 1
  30   15   16 ar
  31   15   43 1
  32   16   17 ar
  33   16   19 1
  34   17   18 ar
  35   17   44 1
  36   18   45 1
  37   19   20 1
  38   20   21 ar
  39   20   25 ar
  40   21   22 ar
  41   21   46 1
  42   22   23 ar
  43   22   26 1
  44   23   24 ar
  45   23   30 1
  46   24   25 ar
  47   24   47 1
  48   25   48 1
  49   26   27 1
  50   26   28 1
  51   26   29 1

#	End of record

