#	Name: ASD06170009
#	Creating user name:	WinNT
#	Creation time:	15. 06. 2019 21:05

#	Modifying user name:	WinNT
#	Modification time:	15. 06. 2019 21:05

#	Program:	/corina/corina34_cracker 3.40 0067  02.08.2006

@<TRIPOS>MOLECULE
ASD06170009
  71   76    0    0    0
SMALL
NO_CHARGES


@<TRIPOS>ATOM
   1 N1            -0.0844     1.4469    -0.3074 N.pl3   
   2 N2            -0.0419     0.0840     0.0012 N.am    
   3 C3             1.2375    -0.2583     0.2590 C.2     
   4 C4             2.0379     0.9662     0.1007 C.2     
   5 C5             1.1551     1.9698    -0.2475 C.2     
   6 C6             3.4891     1.0960     0.2790 C.2     
   7 O7             4.0281     2.1748     0.1163 O.2     
   8 N8             4.2247     0.0202     0.6228 N.am    
   9 C9            -1.2968     2.1941    -0.6513 C.3     
  10 O10           -1.0362     3.7885     1.1805 O.3     
  11 C11           -1.9100     2.7842     0.6202 C.3     
  12 C12           -3.2162     3.5388     0.2872 C.3     
  13 C13           -3.1965     4.7594     1.2343 C.3     
  14 C14           -1.8808     4.5979     2.0275 C.3     
  15 C15           -1.1414    -0.7797     0.0373 C.ar    
  16 C16           -2.0894    -0.7422    -0.9770 C.ar    
  17 C17           -3.1737    -1.5967    -0.9387 C.ar    
  18 C18           -3.3163    -2.4887     0.1084 C.ar    
  19 C19           -2.3741    -2.5286     1.1198 C.ar    
  20 C20           -1.2845    -1.6807     1.0845 C.ar    
  21 O21            1.6485    -1.3626     0.5629 O.2     
  22 C22            1.5181     3.4076    -0.5160 C.3     
  23 C23            5.6227     0.1010     0.6293 C.ar    
  24 C24            6.2469     1.3209     0.8550 C.ar    
  25 C25            7.6269     1.3995     0.8616 C.ar    
  26 C26            8.3884     0.2578     0.6424 C.ar    
  27 C27            7.7641    -0.9595     0.4171 C.ar    
  28 C28            6.3849    -1.0396     0.4156 C.ar    
  29 O29            9.7462     0.3347     0.6483 O.3     
  30 N30           11.6206     0.8148     4.2904 N.ar    
  31 C31           10.3103     0.8287     4.2155 C.ar    
  32 C32            9.6443     0.6703     3.0070 C.ar    
  33 C33           10.3694     0.4921     1.8417 C.ar    
  34 C34           11.7798     0.4789     1.9342 C.ar    
  35 C35           12.5817     0.3036     0.7970 C.ar    
  36 C36           13.9371     0.2960     0.9185 C.ar    
  37 C37           14.5440     0.4611     2.1669 C.ar    
  38 C38           13.7845     0.6348     3.3017 C.ar    
  39 C39           12.3840     0.6471     3.2041 C.ar    
  40 O40           15.8990     0.4497     2.2613 O.3     
  41 C41           16.6323     0.2651     1.0488 C.3     
  42 F42            8.2352     2.5858     1.0806 F       
  43 H43            3.7857    -0.8099     0.8659 H       
  44 H44           -1.0438     2.9998    -1.3404 H       
  45 H45           -2.0149     1.5238    -1.1237 H       
  46 H46           -2.1000     1.9969     1.3497 H       
  47 H47           -3.2153     3.8628    -0.7535 H       
  48 H48           -4.0830     2.9104     0.4919 H       
  49 H49           -3.1860     5.6869     0.6618 H       
  50 H50           -4.0536     4.7345     1.9072 H       
  51 H51           -2.0679     4.0897     2.9735 H       
  52 H52           -1.4215     5.5707     2.2027 H       
  53 H53           -1.9791    -0.0452    -1.7946 H       
  54 H54           -3.9113    -1.5680    -1.7271 H       
  55 H55           -4.1655    -3.1554     0.1364 H       
  56 H56           -2.4883    -3.2265     1.9361 H       
  57 H57           -0.5469    -1.7152     1.8726 H       
  58 H58            1.4642     3.9754     0.4128 H       
  59 H59            2.5313     3.4582    -0.9145 H       
  60 H60            0.8212     3.8290    -1.2405 H       
  61 H61            5.6544     2.2078     1.0249 H       
  62 H62            8.3564    -1.8464     0.2468 H       
  63 H63            5.8995    -1.9890     0.2442 H       
  64 H64            9.7341     0.9670     5.1184 H       
  65 H65            8.5648     0.6855     2.9768 H       
  66 H66           12.1245     0.1746    -0.1730 H       
  67 H67           14.5510     0.1604     0.0404 H       
  68 H68           14.2631     0.7608     4.2616 H       
  69 H69           17.7006     0.2761     1.2649 H       
  70 H70           16.3617    -0.6919     0.6026 H       
  71 H71           16.3939     1.0703     0.3538 H       
@<TRIPOS>BOND
   1    1    2 1
   2    1    5 1
   3    1    9 1
   4    2    3 am
   5    2   15 1
   6    3    4 1
   7    3   21 2
   8    4    5 2
   9    4    6 1
  10    5   22 1
  11    6    7 2
  12    6    8 am
  13    8   23 1
  14    8   43 1
  15    9   11 1
  16    9   44 1
  17    9   45 1
  18   10   11 1
  19   10   14 1
  20   11   12 1
  21   11   46 1
  22   12   13 1
  23   12   47 1
  24   12   48 1
  25   13   14 1
  26   13   49 1
  27   13   50 1
  28   14   51 1
  29   14   52 1
  30   15   16 ar
  31   15   20 ar
  32   16   17 ar
  33   16   53 1
  34   17   18 ar
  35   17   54 1
  36   18   19 ar
  37   18   55 1
  38   19   20 ar
  39   19   56 1
  40   20   57 1
  41   22   58 1
  42   22   59 1
  43   22   60 1
  44   23   24 ar
  45   23   28 ar
  46   24   25 ar
  47   24   61 1
  48   25   26 ar
  49   25   42 1
  50   26   27 ar
  51   26   29 1
  52   27   28 ar
  53   27   62 1
  54   28   63 1
  55   29   33 1
  56   30   31 ar
  57   30   39 ar
  58   31   32 ar
  59   31   64 1
  60   32   33 ar
  61   32   65 1
  62   33   34 ar
  63   34   35 ar
  64   34   39 ar
  65   35   36 ar
  66   35   66 1
  67   36   37 ar
  68   36   67 1
  69   37   38 ar
  70   37   40 1
  71   38   39 ar
  72   38   68 1
  73   40   41 1
  74   41   69 1
  75   41   70 1
  76   41   71 1

#	End of record

