#	Name: ASD04550053
#	Creating user name:	WinNT
#	Creation time:	15. 06. 2019 20:49

#	Modifying user name:	WinNT
#	Modification time:	15. 06. 2019 20:49

#	Program:	/corina/corina34_cracker 3.40 0067  02.08.2006

@<TRIPOS>MOLECULE
ASD04550053
  34   34    0    0    0
SMALL
NO_CHARGES


@<TRIPOS>ATOM
   1 C1            -0.0167     1.3831     0.0096 C.ar    
   2 C2             0.0021    -0.0041     0.0020 C.ar    
   3 C3             1.2141    -0.6789    -0.0132 C.ar    
   4 C4             2.3989     0.0314    -0.0207 C.ar    
   5 C5             2.3774     1.4139    -0.0126 C.ar    
   6 C6             1.1708     2.0889     0.0021 C.ar    
   7 C7             3.6714     2.1863    -0.0198 C.3     
   8 C8             3.7284     3.0742    -1.2645 C.3     
   9 O9            -1.1648    -0.7006     0.0099 O.3     
  10 S10           -1.7101    -1.0105    -1.3769 S.o2    
  11 C11           -0.6479    -2.3457    -1.9931 C.3     
  12 O12           -3.0259    -1.4906    -1.1368 O.2     
  13 O13           -1.4892     0.1834    -2.1151 O.2     
  14 C14           -0.7495    -3.5515    -1.0568 C.3     
  15 C15           -1.1007    -2.7507    -3.3973 C.3     
  16 C16            3.7497     3.0468     1.2149 C.2     
  17 O17            2.8473     3.0341     2.0184 O.2     
  18 O18            4.8218     3.8273     1.4222 O.3     
  19 H19           -0.9590     1.9108     0.0170 H       
  20 H20            1.2314    -1.7588    -0.0188 H       
  21 H21            3.3426    -0.4935    -0.0325 H       
  22 H22            1.1567     3.1688     0.0084 H       
  23 H23            4.5100     1.4902    -0.0313 H       
  24 H24            2.8898     3.7703    -1.2530 H       
  25 H25            4.6643     3.6329    -1.2698 H       
  26 H26            3.6718     2.4518    -2.1576 H       
  27 H27            0.3853    -2.0003    -2.0299 H       
  28 H28           -0.4270    -3.2629    -0.0564 H       
  29 H29           -1.7827    -3.8968    -1.0199 H       
  30 H30           -0.1113    -4.3537    -1.4271 H       
  31 H31           -1.0283    -1.8917    -4.0643 H       
  32 H32           -0.4624    -3.5530    -3.7675 H       
  33 H33           -2.1339    -3.0960    -3.3604 H       
  34 H34            4.8268     4.3613     2.2283 H       
@<TRIPOS>BOND
   1    1    2 ar
   2    1    6 ar
   3    1   19 1
   4    2    3 ar
   5    2    9 1
   6    3    4 ar
   7    3   20 1
   8    4    5 ar
   9    4   21 1
  10    5    6 ar
  11    5    7 1
  12    6   22 1
  13    7    8 1
  14    7   16 1
  15    7   23 1
  16    8   24 1
  17    8   25 1
  18    8   26 1
  19    9   10 1
  20   10   11 1
  21   10   12 2
  22   10   13 2
  23   11   14 1
  24   11   15 1
  25   11   27 1
  26   14   28 1
  27   14   29 1
  28   14   30 1
  29   15   31 1
  30   15   32 1
  31   15   33 1
  32   16   17 2
  33   16   18 1
  34   18   34 1

#	End of record

