#	Name: ASD03930194
#	Creating user name:	WinNT
#	Creation time:	15. 06. 2019 20:47

#	Modifying user name:	WinNT
#	Modification time:	15. 06. 2019 20:47

#	Program:	/corina/corina34_cracker 3.40 0067  02.08.2006

@<TRIPOS>MOLECULE
ASD03930194
  39   42    0    0    0
SMALL
NO_CHARGES


@<TRIPOS>ATOM
   1 S1            -0.0753     4.0337    -1.0004 S.o2    
   2 N2            -0.7566     2.5508    -1.3392 N.am    
   3 C3            -0.4948     1.9219    -2.6301 C.3     
   4 C4             0.9731     1.5824    -2.8399 C.3     
   5 O5             1.7795     2.7660    -2.8768 O.3     
   6 C6             2.3642     3.1178    -1.7037 C.ar    
   7 C7             1.6343     3.6846    -0.6680 C.ar    
   8 C8             3.7233     2.8926    -1.5142 C.ar    
   9 C9             4.3092     3.1910    -0.3002 C.ar    
  10 C10            3.5559     3.7166     0.7392 C.ar    
  11 C11            2.2009     3.9689     0.5465 C.ar    
  12 O12            4.1375     3.9829     1.9390 O.3     
  13 C13            3.3383     4.3946     2.9579 C.ar    
  14 C14            2.7473     3.4620     3.7945 C.ar    
  15 C15            1.9278     3.8890     4.8390 C.ar    
  16 C16            1.7086     5.2539     5.0345 C.ar    
  17 C17            2.3021     6.1745     4.1955 C.ar    
  18 C18            3.1190     5.7501     3.1636 C.ar    
  19 O19            0.4865     3.1846     6.7729 O.3     
  20 C20            1.2931     2.8999     5.7358 C.2     
  21 N21            1.4219     1.5967     5.6526 N.2     
  22 C22            0.7014     1.0310     6.6328 C.2     
  23 C23            0.1152     2.0175     7.3354 C.2     
  24 O24           -0.1131     4.7869    -2.2047 O.2     
  25 O25           -0.6480     4.4782     0.2218 O.2     
  26 H26           -1.3211     2.1100    -0.6850 H       
  27 H27           -1.0801     1.0050    -2.6987 H       
  28 H28           -0.8146     2.5995    -3.4217 H       
  29 H29            1.3123     0.9445    -2.0237 H       
  30 H30            1.0843     1.0450    -3.7817 H       
  31 H31            4.3202     2.4841    -2.3163 H       
  32 H32            5.3651     3.0137    -0.1585 H       
  33 H33            1.6033     4.3841     1.3446 H       
  34 H34            2.9203     2.4075     3.6381 H       
  35 H35            1.0744     5.5890     5.8419 H       
  36 H36            2.1317     7.2300     4.3478 H       
  37 H37            3.5848     6.4754     2.5129 H       
  38 H38            0.6079    -0.0279     6.8235 H       
  39 H39           -0.5322     1.8965     8.1913 H       
@<TRIPOS>BOND
   1    1    2 am
   2    1    7 1
   3    1   24 2
   4    1   25 2
   5    2    3 1
   6    2   26 1
   7    3    4 1
   8    3   27 1
   9    3   28 1
  10    4    5 1
  11    4   29 1
  12    4   30 1
  13    5    6 1
  14    6    7 ar
  15    6    8 ar
  16    7   11 ar
  17    8    9 ar
  18    8   31 1
  19    9   10 ar
  20    9   32 1
  21   10   11 ar
  22   10   12 1
  23   11   33 1
  24   12   13 1
  25   13   14 ar
  26   13   18 ar
  27   14   15 ar
  28   14   34 1
  29   15   16 ar
  30   15   20 1
  31   16   17 ar
  32   16   35 1
  33   17   18 ar
  34   17   36 1
  35   18   37 1
  36   19   20 1
  37   19   23 1
  38   20   21 2
  39   21   22 1
  40   22   23 2
  41   22   38 1
  42   23   39 1

#	End of record

