#	Name: ASD03240266
#	Creating user name:	WinNT
#	Creation time:	15. 06. 2019 20:34

#	Modifying user name:	WinNT
#	Modification time:	15. 06. 2019 20:34

#	Program:	/corina/corina34_cracker 3.40 0067  02.08.2006

@<TRIPOS>MOLECULE
ASD03240266
  86   91    0    0    0
SMALL
NO_CHARGES


@<TRIPOS>ATOM
   1 C1             0.0597     1.4807    -0.0127 C.ar    
   2 C2             0.0054     0.1023     0.1530 C.ar    
   3 C3             1.1903    -0.6356     0.2862 C.ar    
   4 C4             2.4165     0.0151     0.2515 C.ar    
   5 C5             2.4623     1.3998     0.0843 C.ar    
   6 C6             1.2755     2.1271    -0.0473 C.ar    
   7 C7             3.7630     2.0963     0.0472 C.2     
   8 O8             4.7951     1.4636     0.1624 O.2     
   9 N9             3.8070     3.4337    -0.1144 N.am    
  10 C10            5.0344     4.1062    -0.0569 C.ar    
  11 C11            6.1789     3.5070    -0.5664 C.ar    
  12 C12            7.3886     4.1699    -0.5102 C.ar    
  13 C13            7.4610     5.4361     0.0560 C.ar    
  14 C14            6.3163     6.0352     0.5655 C.ar    
  15 C15            5.1057     5.3743     0.5045 C.ar    
  16 N16            8.6868     6.1077     0.1134 N.pl3   
  17 C17            8.7631     7.4433     0.7106 C.3     
  18 C18            9.8943     5.4754    -0.4237 C.3     
  19 C19            9.0489     7.3187     2.1850 C.ar    
  20 C20           10.3577     7.2954     2.6331 C.ar    
  21 C21           10.6266     7.1820     3.9814 C.ar    
  22 C22            9.5742     7.0906     4.8945 C.ar    
  23 C23            8.2557     7.1148     4.4353 C.ar    
  24 C24            8.0012     7.2339     3.0848 C.ar    
  25 C25           10.0487     5.8412    -1.8775 C.ar    
  26 C26           10.7624     6.9726    -2.2309 C.ar    
  27 C27           10.9080     7.3130    -3.5597 C.ar    
  28 C28           10.3331     6.5128    -4.5491 C.ar    
  29 C29            9.6141     5.3724    -4.1853 C.ar    
  30 C30            9.4808     5.0409    -2.8529 C.ar    
  31 C31            1.1340    -2.1066     0.4641 C.ar    
  32 C32            1.9117    -2.9238    -0.3348 C.ar    
  33 C33            1.8546    -4.3154    -0.1615 C.ar    
  34 C34            1.0005    -4.8607     0.8301 C.ar    
  35 C35            0.2220    -4.0016     1.6265 C.ar    
  36 C36            0.2953    -2.6576     1.4470 C.ar    
  37 C37            2.6300    -5.1796    -0.9550 C.ar    
  38 C38            2.5508    -6.5243    -0.7614 C.ar    
  39 C39            1.7112    -7.0602     0.2134 C.ar    
  40 C40            0.9462    -6.2545     0.9998 C.ar    
  41 N41           -1.2264    -0.5467     0.1873 N.am    
  42 C42           -2.3103     0.0900     0.6732 C.2     
  43 C43           -3.6179    -0.6463     0.8114 C.3     
  44 O44           -2.2334     1.2556     0.9992 O.2     
  45 N45           -4.6324     0.2582     1.3581 N.pl3   
  46 C46           -5.9126    -0.1943     1.5733 C.2     
  47 N47           -6.8152     0.6105     2.0597 N.2     
  48 N48           -6.2408    -1.4957     1.2756 N.pl3   
  49 C49           10.4797     6.8604    -5.9305 C.1     
  50 N50           10.5961     7.1361    -7.0264 N.1     
  51 C51            9.8458     6.9723     6.2955 C.1     
  52 N52           10.0613     6.8783     7.4070 N.1     
  53 H53           -0.8540     2.0465    -0.1193 H       
  54 H54            3.3320    -0.5487     0.3541 H       
  55 H55            1.3122     3.1987    -0.1771 H       
  56 H56            2.9886     3.9305    -0.2705 H       
  57 H57            6.1227     2.5222    -1.0064 H       
  58 H58            8.2788     3.7037    -0.9062 H       
  59 H59            6.3725     7.0197     1.0061 H       
  60 H60            4.2155     5.8404     0.9004 H       
  61 H61            9.5618     8.0101     0.2323 H       
  62 H62            7.8143     7.9602     0.5668 H       
  63 H63           10.7647     5.8231     0.1328 H       
  64 H64            9.8107     4.3929    -0.3283 H       
  65 H65           11.1708     7.3657     1.9257 H       
  66 H66           11.6486     7.1635     4.3298 H       
  67 H67            7.4371     7.0442     5.1362 H       
  68 H68            6.9820     7.2527     2.7282 H       
  69 H69           11.2062     7.5908    -1.4646 H       
  70 H70           11.4650     8.1967    -3.8342 H       
  71 H71            9.1666     4.7494    -4.9455 H       
  72 H72            8.9250     4.1591    -2.5701 H       
  73 H73            2.5577    -2.4949    -1.0865 H       
  74 H74           -0.4307    -4.4106     2.3836 H       
  75 H75           -0.3051    -2.0042     2.0625 H       
  76 H76            3.2847    -4.7782    -1.7143 H       
  77 H77            3.1471    -7.1859    -1.3723 H       
  78 H78            1.6665    -8.1310     0.3466 H       
  79 H79            0.3007    -6.6846     1.7512 H       
  80 H80           -1.3042    -1.4571    -0.1386 H       
  81 H81           -3.9390    -1.0035    -0.1671 H       
  82 H82           -3.4878    -1.4948     1.4831 H       
  83 H83           -4.4008     1.1764     1.5682 H       
  84 H84           -7.7184     0.2912     2.2116 H       
  85 H85           -5.5691    -2.0947     0.9136 H       
  86 H86           -7.1441    -1.8150     1.4274 H       
@<TRIPOS>BOND
   1    1    2 ar
   2    1    6 ar
   3    1   53 1
   4    2    3 ar
   5    2   41 1
   6    3    4 ar
   7    3   31 1
   8    4    5 ar
   9    4   54 1
  10    5    6 ar
  11    5    7 1
  12    6   55 1
  13    7    8 2
  14    7    9 am
  15    9   10 1
  16    9   56 1
  17   10   11 ar
  18   10   15 ar
  19   11   12 ar
  20   11   57 1
  21   12   13 ar
  22   12   58 1
  23   13   14 ar
  24   13   16 1
  25   14   15 ar
  26   14   59 1
  27   15   60 1
  28   16   17 1
  29   16   18 1
  30   17   19 1
  31   17   61 1
  32   17   62 1
  33   18   25 1
  34   18   63 1
  35   18   64 1
  36   19   20 ar
  37   19   24 ar
  38   20   21 ar
  39   20   65 1
  40   21   22 ar
  41   21   66 1
  42   22   23 ar
  43   22   51 1
  44   23   24 ar
  45   23   67 1
  46   24   68 1
  47   25   26 ar
  48   25   30 ar
  49   26   27 ar
  50   26   69 1
  51   27   28 ar
  52   27   70 1
  53   28   29 ar
  54   28   49 1
  55   29   30 ar
  56   29   71 1
  57   30   72 1
  58   31   32 ar
  59   31   36 ar
  60   32   33 ar
  61   32   73 1
  62   33   34 ar
  63   33   37 ar
  64   34   35 ar
  65   34   40 ar
  66   35   36 ar
  67   35   74 1
  68   36   75 1
  69   37   38 ar
  70   37   76 1
  71   38   39 ar
  72   38   77 1
  73   39   40 ar
  74   39   78 1
  75   40   79 1
  76   41   42 am
  77   41   80 1
  78   42   43 1
  79   42   44 2
  80   43   45 1
  81   43   81 1
  82   43   82 1
  83   45   46 1
  84   45   83 1
  85   46   47 2
  86   46   48 1
  87   47   84 1
  88   48   85 1
  89   48   86 1
  90   49   50 3
  91   51   52 3

#	End of record

