#	Name: ASD07300985
#	Creating user name:	WinNT
#	Creation time:	15. 06. 2019 21:10

#	Modifying user name:	WinNT
#	Modification time:	15. 06. 2019 21:10

#	Program:	/corina/corina34_cracker 3.40 0067  02.08.2006

@<TRIPOS>MOLECULE
ASD07300985
  24   25    0    0    0
SMALL
NO_CHARGES


@<TRIPOS>ATOM
   1 C1            -0.0163     1.4142     0.0540 C.2     
   2 C2             0.0021    -0.0041     0.0027 C.2     
   3 C3             1.2630    -0.6445    -0.0580 C.2     
   4 C4             2.3710     0.1390    -0.0633 C.2     
   5 N5             2.2482     1.4865    -0.0110 N.pl3   
   6 N6             1.1091     2.0735     0.0438 N.2     
   7 O7            -1.0356    -0.6506     0.0112 O.2     
   8 C8             3.4084     2.2685    -0.0174 C.ar    
   9 C9             3.3153     3.6514    -0.1134 C.ar    
  10 C10            4.4623     4.4202    -0.1190 C.ar    
  11 C11            5.7028     3.8151    -0.0296 C.ar    
  12 C12            5.7990     2.4390     0.0656 C.ar    
  13 C13            4.6554     1.6645     0.0780 C.ar    
  14 C14            4.3623     5.9203    -0.2231 C.3     
  15 F15            4.2789     6.4722     1.0597 F       
  16 F16            5.4964     6.4192    -0.8727 F       
  17 F17            3.2187     6.2619    -0.9530 F       
  18 Br18          -1.6622     2.3423     0.1287 Br      
  19 H19            1.3407    -1.7210    -0.0985 H       
  20 H20            3.3511    -0.3124    -0.1089 H       
  21 H21            2.3470     4.1244    -0.1840 H       
  22 H22            6.5983     4.4187    -0.0345 H       
  23 H23            6.7692     1.9696     0.1349 H       
  24 H24            4.7311     0.5900     0.1572 H       
@<TRIPOS>BOND
   1    1    2 1
   2    1    6 2
   3    1   18 1
   4    2    3 1
   5    2    7 2
   6    3    4 2
   7    3   19 1
   8    4    5 1
   9    4   20 1
  10    5    6 1
  11    5    8 1
  12    8    9 ar
  13    8   13 ar
  14    9   10 ar
  15    9   21 1
  16   10   11 ar
  17   10   14 1
  18   11   12 ar
  19   11   22 1
  20   12   13 ar
  21   12   23 1
  22   13   24 1
  23   14   15 1
  24   14   16 1
  25   14   17 1

#	End of record

