#	Name: ASD01140202
#	Creating user name:	WinNT
#	Creation time:	15. 06. 2019 19:00

#	Modifying user name:	WinNT
#	Modification time:	15. 06. 2019 19:00

#	Program:	/corina/corina34_cracker 3.40 0067  02.08.2006

@<TRIPOS>MOLECULE
ASD01140202
  41   44    0    0    0
SMALL
NO_CHARGES


@<TRIPOS>ATOM
   1 C1             0.2314     1.7409     0.4600 C.ar    
   2 C2             0.1137     0.3486     0.4587 C.ar    
   3 C3             1.2452    -0.4431     0.3074 C.ar    
   4 C4             2.5078     0.1447     0.1555 C.ar    
   5 C5             2.6064     1.5383     0.1352 C.ar    
   6 C6             1.4683     2.3233     0.2992 C.ar    
   7 C7             3.6700    -0.7456     0.0565 C.2     
   8 N8             4.6882    -0.6304    -0.7213 N.2     
   9 C9             4.8030     0.4695    -1.6860 C.3     
  10 C10            4.8109     1.7609    -0.9098 C.2     
  11 N11            3.8253     2.1872    -0.0806 N.pl3   
  12 C12            4.2313     3.3646     0.4671 C.2     
  13 C13            5.7860     2.7089    -0.8946 C.2     
  14 N14            5.3947     3.6800    -0.0283 N.2     
  15 C15            3.6711    -1.9183     0.9616 C.ar    
  16 C16            4.3803    -3.0686     0.6163 C.ar    
  17 C17            2.9678    -1.8744     2.1652 C.ar    
  18 C18            2.9731    -2.9697     3.0044 C.ar    
  19 C19            3.6741    -4.1098     2.6539 C.ar    
  20 C20            4.3779    -4.1575     1.4638 C.ar    
  21 C21           -1.1724    -0.2619     0.6137 C.1     
  22 C22           -2.2268    -0.7623     0.7408 C.1     
  23 C23            7.0359     2.6868    -1.6741 C.2     
  24 O24            7.2717     1.7545    -2.4195 O.2     
  25 S25            8.1895     4.0106    -1.5270 S.3     
  26 C26            9.4677     3.4428    -2.6757 C.3     
  27 H27           -0.6461     2.3584     0.5823 H       
  28 H28            1.1510    -1.5190     0.3073 H       
  29 H29            1.5568     3.3996     0.3003 H       
  30 H30            5.7309     0.3714    -2.2495 H       
  31 H31            3.9525     0.4533    -2.3676 H       
  32 H32            3.6800     3.9430     1.1936 H       
  33 H33            4.9298    -3.1070    -0.3126 H       
  34 H34            2.4205    -0.9848     2.4401 H       
  35 H35            2.4292    -2.9369     3.9368 H       
  36 H36            3.6755    -4.9645     3.3141 H       
  37 H37            4.9230    -5.0504     1.1954 H       
  38 H38           -3.1698    -1.2099     0.8545 H       
  39 H39            9.8540     2.4796    -2.3423 H       
  40 H40            9.0395     3.3372    -3.6725 H       
  41 H41           10.2795     4.1696    -2.7042 H       
@<TRIPOS>BOND
   1    1    2 ar
   2    1    6 ar
   3    1   27 1
   4    2    3 ar
   5    2   21 1
   6    3    4 ar
   7    3   28 1
   8    4    5 ar
   9    4    7 1
  10    5    6 ar
  11    5   11 1
  12    6   29 1
  13    7    8 2
  14    7   15 1
  15    8    9 1
  16    9   10 1
  17    9   30 1
  18    9   31 1
  19   10   11 1
  20   10   13 2
  21   11   12 1
  22   12   14 2
  23   12   32 1
  24   13   14 1
  25   13   23 1
  26   15   16 ar
  27   15   17 ar
  28   16   20 ar
  29   16   33 1
  30   17   18 ar
  31   17   34 1
  32   18   19 ar
  33   18   35 1
  34   19   20 ar
  35   19   36 1
  36   20   37 1
  37   21   22 3
  38   22   38 1
  39   23   24 2
  40   23   25 1
  41   25   26 1
  42   26   39 1
  43   26   40 1
  44   26   41 1

#	End of record

