#	Name: ASD01814220
#	Creating user name:	WinNT
#	Creation time:	15. 06. 2019 19:31

#	Modifying user name:	WinNT
#	Modification time:	15. 06. 2019 19:31

#	Program:	/corina/corina34_cracker 3.40 0067  02.08.2006

@<TRIPOS>MOLECULE
ASD01814220
  65   69    0    0    0
SMALL
NO_CHARGES


@<TRIPOS>ATOM
   1 N1             0.2740     1.9620    -0.2663 N.2     
   2 C2             0.1671     0.7591    -0.7795 C.2     
   3 C3             1.1611     0.2656    -1.6384 C.2     
   4 C4             2.2328     1.0424    -1.9333 C.2     
   5 N5             2.3192     2.2906    -1.3855 N.pl3   
   6 C6             1.3282     2.7382    -0.5506 C.2     
   7 N7             3.2748     3.3064    -1.4917 N.2     
   8 C8             2.8913     4.3313    -0.7574 C.2     
   9 C9             1.6840     4.0218    -0.1540 C.2     
  10 C10            3.2980     5.7232    -0.3400 C.3     
  11 N11            2.2607     6.2412     0.5574 N.am    
  12 C12            1.2435     5.1928     0.6863 C.3     
  13 C13            2.2450     7.4510     1.1511 C.2     
  14 O14            1.2725     7.8015     1.7916 O.2     
  15 C15            3.4068     8.3496     1.0240 C.ar    
  16 C16            3.2167     9.7162     0.7727 C.ar    
  17 C17            4.7029     7.8449     1.1591 C.ar    
  18 C18            5.7847     8.6886     1.0400 C.ar    
  19 C19            5.5937    10.0398     0.7860 C.ar    
  20 C20            4.3149    10.5525     0.6555 C.ar    
  21 O21            1.9625    10.2171     0.6446 O.3     
  22 C22            1.8444    11.6267     0.4424 C.3     
  23 C23            1.7826    13.4450    -1.2676 C.3     
  24 C24            1.9705    11.9418    -1.0508 C.3     
  25 C25            0.4778    12.1028     0.9427 C.3     
  26 C26            0.3331    13.6013     0.6681 C.3     
  27 N27            0.4606    13.8506    -0.7734 N.3     
  28 C28            3.3139     0.5353    -2.8526 C.3     
  29 Cl29           1.0203    -1.3261    -2.3171 Cl      
  30 C30           -1.0277    -0.0961    -0.4448 C.3     
  31 C31            0.1897    15.2593    -1.0900 C.3     
  32 F32            6.6614    10.8596     0.6713 F       
  33 C33            0.1739    15.4468    -2.6084 C.3     
  34 C34           -1.1695    15.6595    -0.5126 C.3     
  35 O35           -0.9236    14.7216    -3.1666 O.3     
  36 O36           -2.2001    14.9047    -1.1532 O.3     
  37 H37            4.2541     5.6877     0.1822 H       
  38 H38            3.3796     6.3632    -1.2185 H       
  39 H39            0.2829     5.5636     0.3287 H       
  40 H40            1.1579     4.8878     1.7292 H       
  41 H41            4.8560     6.7943     1.3570 H       
  42 H42            6.7859     8.2974     1.1449 H       
  43 H43            4.1730    11.6054     0.4616 H       
  44 H44            2.6329    12.1409     0.9920 H       
  45 H45            2.5557    13.9896    -0.7256 H       
  46 H46            1.8576    13.6707    -2.3313 H       
  47 H47            2.9580    11.6439    -1.4034 H       
  48 H48            1.2061    11.3960    -1.6037 H       
  49 H49           -0.3101    11.5595     0.4212 H       
  50 H50            0.3988    11.9199     2.0144 H       
  51 H51           -0.6446    13.9405     1.0103 H       
  52 H52            1.1131    14.1452     1.2011 H       
  53 H53            3.0659    -0.4732    -3.1835 H       
  54 H54            3.3926     1.1927    -3.7184 H       
  55 H55            4.2652     0.5195    -2.3207 H       
  56 H56           -1.6871     0.4492     0.2305 H       
  57 H57           -1.5669    -0.3412    -1.3598 H       
  58 H58           -0.6934    -1.0148     0.0372 H       
  59 H59            0.9681    15.8858    -0.6546 H       
  60 H60            0.0663    16.5059    -2.8426 H       
  61 H61            1.1075    15.0745    -3.0302 H       
  62 H62           -1.1831    15.4571     0.5583 H       
  63 H63           -1.3381    16.7227    -0.6837 H       
  64 H64           -0.9954    14.7953    -4.1281 H       
  65 H65           -3.0908    15.1070    -0.8358 H       
@<TRIPOS>BOND
   1    1    2 2
   2    1    6 1
   3    2    3 1
   4    2   30 1
   5    3    4 2
   6    3   29 1
   7    4    5 1
   8    4   28 1
   9    5    7 1
  10    5    6 1
  11    6    9 2
  12    7    8 2
  13    8   10 1
  14    8    9 1
  15    9   12 1
  16   10   11 1
  17   10   37 1
  18   10   38 1
  19   11   12 1
  20   11   13 am
  21   12   39 1
  22   12   40 1
  23   13   14 2
  24   13   15 1
  25   15   17 ar
  26   15   16 ar
  27   16   20 ar
  28   16   21 1
  29   17   18 ar
  30   17   41 1
  31   18   19 ar
  32   18   42 1
  33   19   20 ar
  34   19   32 1
  35   20   43 1
  36   21   22 1
  37   22   25 1
  38   22   24 1
  39   22   44 1
  40   23   24 1
  41   23   27 1
  42   23   45 1
  43   23   46 1
  44   24   47 1
  45   24   48 1
  46   25   26 1
  47   25   49 1
  48   25   50 1
  49   26   27 1
  50   26   51 1
  51   26   52 1
  52   27   31 1
  53   28   53 1
  54   28   54 1
  55   28   55 1
  56   30   56 1
  57   30   57 1
  58   30   58 1
  59   31   33 1
  60   31   34 1
  61   31   59 1
  62   33   35 1
  63   33   60 1
  64   33   61 1
  65   34   36 1
  66   34   62 1
  67   34   63 1
  68   35   64 1
  69   36   65 1

#	End of record

