#	Name: ASD03240563
#	Creating user name:	WinNT
#	Creation time:	15. 06. 2019 20:35

#	Modifying user name:	WinNT
#	Modification time:	15. 06. 2019 20:35

#	Program:	/corina/corina34_cracker 3.40 0067  02.08.2006

@<TRIPOS>MOLECULE
ASD03240563
  69   76    0    0    0
SMALL
NO_CHARGES


@<TRIPOS>ATOM
   1 C1            -0.0166     1.3755     0.0096 C.ar    
   2 C2             0.0021    -0.0041     0.0020 C.ar    
   3 N3             1.1422    -0.6683    -0.0058 N.ar    
   4 C4             2.3145    -0.0481    -0.0058 C.ar    
   5 C5             2.3702     1.3442    -0.0124 C.ar    
   6 C6             1.1860     2.0698     0.0019 C.ar    
   7 N7             3.4820    -0.8058     0.0220 N.pl3   
   8 C8             4.3589    -0.7197     1.0999 C.ar    
   9 C9             4.9951     0.4884     1.4042 C.ar    
  10 C10            4.7642     1.6831     0.5626 C.2     
  11 N11            3.5938     2.0276    -0.0512 N.pl3   
  12 C12            4.6043    -1.8396     1.8832 C.ar    
  13 C13            5.4634    -1.7545     2.9622 C.ar    
  14 C14            6.0842    -0.5566     3.2715 C.ar    
  15 C15            5.8557     0.5644     2.4991 C.ar    
  16 N16            5.6761     2.5933     0.2862 N.2     
  17 C17            5.1465     3.5394    -0.5051 C.2     
  18 C18            3.8225     3.2035    -0.7371 C.2     
  19 C19            2.8504     3.9536    -1.5552 C.ar    
  20 C20            2.7518     5.3418    -1.4311 C.ar    
  21 C21            2.0282     3.2799    -2.4619 C.ar    
  22 C22            1.1222     3.9877    -3.2237 C.ar    
  23 C23            1.0263     5.3618    -3.0917 C.ar    
  24 C24            1.8412     6.0365    -2.1995 C.ar    
  25 C25            5.8504     4.7293    -1.0343 C.ar    
  26 C26            0.0342     6.1281    -3.9280 C.3     
  27 N27           -1.0446     5.2804    -4.4529 N.3     
  28 C28           -0.4668     7.4197    -3.2604 C.3     
  29 C29           -0.3785     8.0777    -4.6474 C.3     
  30 C30            0.6883     7.0232    -4.9939 C.3     
  31 C31            6.8197     5.3690    -0.2597 C.ar    
  32 C32            7.4745     6.4755    -0.7527 C.ar    
  33 C33            7.1693     6.9572    -2.0256 C.ar    
  34 C34            6.2009     6.3185    -2.8000 C.ar    
  35 C35            5.5492     5.2087    -2.3102 C.ar    
  36 C36            7.8745     8.1492    -2.5557 C.ar    
  37 C37            7.5778     8.6420    -3.8301 C.ar    
  38 C38            8.8396     8.8000    -1.7895 C.ar    
  39 N39            9.4663     9.8593    -2.2593 N.ar    
  40 C40            9.2112    10.3438    -3.4592 C.ar    
  41 C41            8.2635     9.7574    -4.2785 C.ar    
  42 H42           -0.9556     1.9091     0.0170 H       
  43 H43           -0.9306    -0.5486     0.0028 H       
  44 H44            1.2002     3.1497     0.0064 H       
  45 H45            3.6864    -1.3999    -0.7170 H       
  46 H46            4.1231    -2.7778     1.6492 H       
  47 H47            5.6514    -2.6283     3.5683 H       
  48 H48            6.7500    -0.4988     4.1199 H       
  49 H49            6.3417     1.4978     2.7421 H       
  50 H50            3.3868     5.8695    -0.7350 H       
  51 H51            2.1022     2.2075    -2.5662 H       
  52 H52            0.4862     3.4682    -3.9253 H       
  53 H53            1.7609     7.1090    -2.1016 H       
  54 H54           -0.6716     4.4581    -4.9033 H       
  55 H55           -1.6948     5.0295    -3.7233 H       
  56 H56           -1.4841     7.3462    -2.8759 H       
  57 H57            0.2321     7.8354    -2.5345 H       
  58 H58           -1.2917     7.9824    -5.2349 H       
  59 H59            0.0059     9.0974    -4.6233 H       
  60 H60            1.7035     7.3300    -4.7422 H       
  61 H61            0.6023     6.6318    -6.0075 H       
  62 H62            7.0558     4.9963     0.7260 H       
  63 H63            8.2242     6.9707    -0.1534 H       
  64 H64            5.9648     6.6921    -3.7854 H       
  65 H65            4.7993     4.7142    -2.9099 H       
  66 H66            6.8327     8.1641    -4.4489 H       
  67 H67            9.0756     8.4330    -0.8016 H       
  68 H68            9.7477    11.2146    -3.8058 H       
  69 H69            8.0635    10.1633    -5.2592 H       
@<TRIPOS>BOND
   1    1    2 ar
   2    1    6 ar
   3    1   42 1
   4    2    3 ar
   5    2   43 1
   6    3    4 ar
   7    4    5 ar
   8    4    7 1
   9    5    6 ar
  10    5   11 1
  11    6   44 1
  12    7    8 1
  13    7   45 1
  14    8    9 ar
  15    8   12 ar
  16    9   10 1
  17    9   15 ar
  18   10   11 1
  19   10   16 2
  20   11   18 1
  21   12   13 ar
  22   12   46 1
  23   13   14 ar
  24   13   47 1
  25   14   15 ar
  26   14   48 1
  27   15   49 1
  28   16   17 1
  29   17   18 2
  30   17   25 1
  31   18   19 1
  32   19   20 ar
  33   19   21 ar
  34   20   24 ar
  35   20   50 1
  36   21   22 ar
  37   21   51 1
  38   22   23 ar
  39   22   52 1
  40   23   24 ar
  41   23   26 1
  42   24   53 1
  43   25   31 ar
  44   25   35 ar
  45   26   27 1
  46   26   28 1
  47   26   30 1
  48   27   54 1
  49   27   55 1
  50   28   29 1
  51   28   56 1
  52   28   57 1
  53   29   30 1
  54   29   58 1
  55   29   59 1
  56   30   60 1
  57   30   61 1
  58   31   32 ar
  59   31   62 1
  60   32   33 ar
  61   32   63 1
  62   33   34 ar
  63   33   36 1
  64   34   35 ar
  65   34   64 1
  66   35   65 1
  67   36   37 ar
  68   36   38 ar
  69   37   41 ar
  70   37   66 1
  71   38   39 ar
  72   38   67 1
  73   39   40 ar
  74   40   41 ar
  75   40   68 1
  76   41   69 1

#	End of record

