#	Name: ASD03240750
#	Creating user name:	WinNT
#	Creation time:	15. 06. 2019 20:35

#	Modifying user name:	WinNT
#	Modification time:	15. 06. 2019 20:35

#	Program:	/corina/corina34_cracker 3.40 0067  02.08.2006

@<TRIPOS>MOLECULE
ASD03240750
  79   84    0    0    0
SMALL
NO_CHARGES


@<TRIPOS>ATOM
   1 C1            -0.0162     1.3406     0.0094 C.2     
   2 N2             0.0021    -0.0041     0.0020 N.2     
   3 C3             1.1202    -0.6827    -0.0123 C.2     
   4 C4             2.3899     0.0407    -0.0205 C.ar    
   5 C5             2.3641     1.4519    -0.0127 C.ar    
   6 N6             1.1344     2.0817     0.0024 N.pl3   
   7 C7             3.6179    -0.6286    -0.0353 C.ar    
   8 C8             4.7783     0.1389    -0.0418 C.ar    
   9 C9             4.6723     1.5432    -0.0333 C.ar    
  10 N10            3.4908     2.1422    -0.0202 N.ar    
  11 N11            0.7735     3.4345     0.0131 N.2     
  12 C12           -0.5349     3.5228     0.0261 C.2     
  13 C13           -1.0721     2.2417     0.0301 C.2     
  14 C14            6.1096    -0.5133    -0.0570 C.ar    
  15 C15            6.4052    -1.5217     0.8589 C.ar    
  16 C16            7.6459    -2.1255     0.8397 C.ar    
  17 C17            8.5956    -1.7316    -0.0857 C.ar    
  18 C18            8.3081    -0.7312    -0.9968 C.ar    
  19 C19            7.0686    -0.1245    -0.9910 C.ar    
  20 C20            5.9041     2.3651    -0.0402 C.ar    
  21 C21            5.9318     3.5795    -0.7260 C.ar    
  22 C22            7.0825     4.3409    -0.7287 C.ar    
  23 C23            8.2073     3.9021    -0.0532 C.ar    
  24 C24            8.1861     2.6985     0.6288 C.ar    
  25 C25            7.0396     1.9309     0.6437 C.ar    
  26 C26            9.4609     4.7383    -0.0606 C.3     
  27 N27            9.4381     5.6652     1.0788 N.3     
  28 C28           10.7381     6.3277     1.2444 C.3     
  29 C29           10.7232     7.1715     2.5211 C.3     
  30 C30            9.6063     8.2145     2.4247 C.3     
  31 C31            8.2697     7.5007     2.2041 C.3     
  32 C32            8.3558     6.6474     0.9366 C.3     
  33 C33            9.5477     9.0093     3.7037 C.2     
  34 N34            8.6343     9.9900     3.8464 N.am    
  35 O35           10.3225     8.7664     4.6046 O.2     
  36 C36           11.0043    11.3430     4.9644 C.3     
  37 C37            9.5852    11.9119     5.0227 C.3     
  38 C38            8.5773    10.7626     5.0898 C.3     
  39 C39            7.1684    11.3300     5.2736 C.3     
  40 C40            6.1768    10.1807     5.4655 C.3     
  41 C41           -1.3265     4.8050     0.0413 C.3     
  42 H42            1.1053    -1.7626    -0.0176 H       
  43 H43            3.6639    -1.7076    -0.0412 H       
  44 H44           -2.1226     1.9916     0.0442 H       
  45 H45            5.6647    -1.8296     1.5823 H       
  46 H46            7.8761    -2.9069     1.5489 H       
  47 H47            9.5654    -2.2067    -0.0968 H       
  48 H48            9.0535    -0.4274    -1.7168 H       
  49 H49            6.8436     0.6534    -1.7057 H       
  50 H50            5.0544     3.9230    -1.2540 H       
  51 H51            7.1053     5.2811    -1.2595 H       
  52 H52            9.0673     2.3613     1.1543 H       
  53 H53            7.0228     0.9937     1.1801 H       
  54 H54           10.3321     4.0878     0.0175 H       
  55 H55            9.5135     5.3059    -0.9897 H       
  56 H56           11.5230     5.5748     1.3159 H       
  57 H57           10.9296     6.9714     0.3859 H       
  58 H58           10.5454     6.5264     3.3815 H       
  59 H59           11.6829     7.6755     2.6354 H       
  60 H60            9.8043     8.8839     1.5875 H       
  61 H61            8.0534     6.8608     3.0596 H       
  62 H62            7.4766     8.2399     2.0920 H       
  63 H63            8.5585     7.2896     0.0795 H       
  64 H64            7.4104     6.1266     0.7845 H       
  65 H65            8.0146    10.1842     3.1259 H       
  66 H66           11.1932    10.7456     5.8563 H       
  67 H67           11.1083    10.7163     4.0786 H       
  68 H68           11.7222    12.1617     4.9166 H       
  69 H69            9.4811    12.5385     5.9085 H       
  70 H70            9.3962    12.5092     4.1308 H       
  71 H71            8.8208    10.1146     5.9318 H       
  72 H72            7.1487    11.9770     6.1506 H       
  73 H73            6.8906    11.9060     4.3909 H       
  74 H74            6.1964     9.5337     4.5885 H       
  75 H75            6.4546     9.6047     6.3482 H       
  76 H76            5.1730    10.5849     5.5964 H       
  77 H77           -1.5275     5.1201    -0.9827 H       
  78 H78           -2.2695     4.6437     0.5635 H       
  79 H79           -0.7550     5.5788     0.5539 H       
@<TRIPOS>BOND
   1    1    2 1
   2    1    6 1
   3    1   13 2
   4    2    3 2
   5    3    4 1
   6    3   42 1
   7    4    5 ar
   8    4    7 ar
   9    5    6 1
  10    5   10 ar
  11    6   11 1
  12    7    8 ar
  13    7   43 1
  14    8    9 ar
  15    8   14 1
  16    9   10 ar
  17    9   20 1
  18   11   12 2
  19   12   13 1
  20   12   41 1
  21   13   44 1
  22   14   15 ar
  23   14   19 ar
  24   15   16 ar
  25   15   45 1
  26   16   17 ar
  27   16   46 1
  28   17   18 ar
  29   17   47 1
  30   18   19 ar
  31   18   48 1
  32   19   49 1
  33   20   21 ar
  34   20   25 ar
  35   21   22 ar
  36   21   50 1
  37   22   23 ar
  38   22   51 1
  39   23   24 ar
  40   23   26 1
  41   24   25 ar
  42   24   52 1
  43   25   53 1
  44   26   27 1
  45   26   54 1
  46   26   55 1
  47   27   28 1
  48   27   32 1
  49   28   29 1
  50   28   56 1
  51   28   57 1
  52   29   30 1
  53   29   58 1
  54   29   59 1
  55   30   31 1
  56   30   33 1
  57   30   60 1
  58   31   32 1
  59   31   61 1
  60   31   62 1
  61   32   63 1
  62   32   64 1
  63   33   34 am
  64   33   35 2
  65   34   38 1
  66   34   65 1
  67   36   37 1
  68   36   66 1
  69   36   67 1
  70   36   68 1
  71   37   38 1
  72   37   69 1
  73   37   70 1
  74   38   39 1
  75   38   71 1
  76   39   40 1
  77   39   72 1
  78   39   73 1
  79   40   74 1
  80   40   75 1
  81   40   76 1
  82   41   77 1
  83   41   78 1
  84   41   79 1

#	End of record

