#	Name: ASD00840352
#	Creating user name:	WinNT
#	Creation time:	15. 06. 2019 18:38

#	Modifying user name:	WinNT
#	Modification time:	15. 06. 2019 18:38

#	Program:	/corina/corina34_cracker 3.40 0067  02.08.2006

@<TRIPOS>MOLECULE
ASD00840352
  97  102    0    0    0
SMALL
NO_CHARGES


@<TRIPOS>ATOM
   1 F1            -0.1034    -3.1507     4.7177 F       
   2 N2            -0.0152     1.3150     0.0236 N.ar    
   3 C3             0.0022    -0.0073     0.0100 C.ar    
   4 C4             1.2067    -0.6993    -0.0074 C.ar    
   5 C5             2.3926     0.0137    -0.0102 C.ar    
   6 C6             2.3315     1.4005     0.0044 C.ar    
   7 C7             1.0990     2.0221     0.0213 C.ar    
   8 C8             1.2215    -2.2061    -0.0224 C.3     
   9 C9             0.4764    -2.7316    -1.2307 C.2     
  10 N10            2.5991    -2.7045    -0.0124 N.am    
  11 C11            3.4464    -2.3633    -1.0034 C.2     
  12 N12            4.7400    -2.7368    -0.9424 N.am    
  13 O13            3.0439    -1.7186    -1.9523 O.2     
  14 C14            5.6548    -2.4755    -2.0640 C.3     
  15 C15            6.9055    -1.7773    -1.5195 C.3     
  16 N16            7.4741    -2.5794    -0.4281 N.3     
  17 C17            6.5399    -2.6814     0.7009 C.3     
  18 C18            5.2756    -3.4111     0.2499 C.3     
  19 C19            8.7676    -2.0353     0.0065 C.3     
  20 C20            9.2695    -2.8183     1.2228 C.3     
  21 C21           10.6448    -2.2871     1.6333 C.3     
  22 N22           11.5824    -2.4347     0.5128 N.3     
  23 C23           11.1457    -1.6533    -0.6513 C.3     
  24 C24            9.7854    -2.1656    -1.1301 C.3     
  25 C25           12.9456    -2.0634     0.9147 C.3     
  26 O26            0.7579    -2.5312    -2.3933 O.2     
  27 N27           -0.5547    -3.4619    -0.7742 N.am    
  28 C28            0.4481    -2.7551     1.1551 C.ar    
  29 C29           -0.6010    -3.4967     0.6216 C.ar    
  30 C30            0.6156    -2.6380     2.5173 C.ar    
  31 C31           -0.2663    -3.2634     3.3813 C.ar    
  32 C32           -1.3270    -4.0132     2.8629 C.ar    
  33 C33           -1.4907    -4.1280     1.4827 C.ar    
  34 C34           -1.0165    -5.8495    -2.0629 C.ar    
  35 C35            0.1628    -6.0100    -2.7761 C.ar    
  36 C36           -1.6955    -6.9564    -1.5900 C.ar    
  37 C37           -1.2020    -8.2251    -1.8256 C.ar    
  38 C38           -0.0228    -8.3909    -2.5385 C.ar    
  39 C39            0.6599    -7.2823    -3.0142 C.ar    
  40 O40            0.4620    -9.6391    -2.7703 O.3     
  41 O41            0.8298    -4.9212    -3.2412 O.3     
  42 C42           -0.2936   -10.7353    -2.2511 C.3     
  43 C43            2.0370    -5.1612    -3.9673 C.3     
  44 C44            2.6415    -3.8263    -4.4071 C.3     
  45 C45           13.9288    -2.4621    -0.1877 C.3     
  46 C46           -2.2445    -4.6638     3.7493 C.1     
  47 N47           -2.9723    -5.1799     4.4524 N.1     
  48 S48           -1.6451    -4.2327    -1.7536 S.o2    
  49 O49           -2.8268    -4.4023    -0.9829 O.2     
  50 O50           -1.6206    -3.5478    -2.9984 O.2     
  51 O51           -1.1676    -0.6947     0.0134 O.3     
  52 C52           -3.5781    -0.8670     0.0331 C.3     
  53 C53           -2.3719     0.0743     0.0320 C.3     
  54 H54            3.3441    -0.4972    -0.0232 H       
  55 H55            3.2385     1.9869     0.0030 H       
  56 H56            1.0460     3.1007     0.0324 H       
  57 H57            2.9014    -3.2801     0.7075 H       
  58 H58            5.9367    -3.4178    -2.5338 H       
  59 H59            5.1645    -1.8314    -2.7940 H       
  60 H60            7.6413    -1.6749    -2.3172 H       
  61 H61            6.6364    -0.7902    -1.1435 H       
  62 H62            7.0105    -3.2347     1.5136 H       
  63 H63            6.2759    -1.6817     1.0460 H       
  64 H64            4.5349    -3.3884     1.0491 H       
  65 H65            5.5183    -4.4442     0.0009 H       
  66 H66            8.6500    -0.9848     0.2726 H       
  67 H67            8.5699    -2.6942     2.0494 H       
  68 H68            9.3488    -3.8751     0.9679 H       
  69 H69           10.5621    -1.2338     1.9014 H       
  70 H70           11.0113    -2.8521     2.4904 H       
  71 H71           11.0607    -0.6030    -0.3726 H       
  72 H72           11.8761    -1.7580    -1.4536 H       
  73 H73            9.8728    -3.2121    -1.4220 H       
  74 H74            9.4544    -1.5753    -1.9845 H       
  75 H75           12.9966    -0.9864     1.0749 H       
  76 H76           13.2058    -2.5808     1.8381 H       
  77 H77            1.4366    -2.0577     2.9117 H       
  78 H78           -2.3099    -4.7072     1.0828 H       
  79 H79           -2.6133    -6.8294    -1.0351 H       
  80 H80           -1.7341    -9.0885    -1.4544 H       
  81 H81            1.5775    -7.4093    -3.5695 H       
  82 H82           -0.3659   -10.6457    -1.1671 H       
  83 H83           -1.2939   -10.7245    -2.6840 H       
  84 H84            0.2025   -11.6717    -2.5060 H       
  85 H85            2.7461    -5.6885    -3.3292 H       
  86 H86            1.8180    -5.7679    -4.8460 H       
  87 H87            2.8605    -3.2196    -3.5285 H       
  88 H88            3.5623    -4.0093    -4.9609 H       
  89 H89            1.9325    -3.2990    -5.0452 H       
  90 H90           13.8778    -3.5391    -0.3479 H       
  91 H91           13.6686    -1.9447    -1.1111 H       
  92 H92           14.9404    -2.1866     0.1105 H       
  93 H93           -3.5405    -1.5046     0.9164 H       
  94 H94           -4.4967    -0.2804     0.0473 H       
  95 H95           -3.5564    -1.4865    -0.8634 H       
  96 H96           -2.3936     0.6938     0.9286 H       
  97 H97           -2.4095     0.7120    -0.8512 H       
@<TRIPOS>BOND
   1    1   31 1
   2    2    3 ar
   3    2    7 ar
   4    3    4 ar
   5    3   51 1
   6    4    5 ar
   7    4    8 1
   8    5    6 ar
   9    5   54 1
  10    6    7 ar
  11    6   55 1
  12    7   56 1
  13    8    9 1
  14    8   10 1
  15    8   28 1
  16    9   26 2
  17    9   27 am
  18   10   11 am
  19   10   57 1
  20   11   12 am
  21   11   13 2
  22   12   14 1
  23   12   18 1
  24   14   15 1
  25   14   58 1
  26   14   59 1
  27   15   16 1
  28   15   60 1
  29   15   61 1
  30   16   17 1
  31   16   19 1
  32   17   18 1
  33   17   62 1
  34   17   63 1
  35   18   64 1
  36   18   65 1
  37   19   20 1
  38   19   24 1
  39   19   66 1
  40   20   21 1
  41   20   67 1
  42   20   68 1
  43   21   22 1
  44   21   69 1
  45   21   70 1
  46   22   23 1
  47   22   25 1
  48   23   24 1
  49   23   71 1
  50   23   72 1
  51   24   73 1
  52   24   74 1
  53   25   45 1
  54   25   75 1
  55   25   76 1
  56   27   48 am
  57   27   29 1
  58   28   29 ar
  59   28   30 ar
  60   29   33 ar
  61   30   31 ar
  62   30   77 1
  63   31   32 ar
  64   32   33 ar
  65   32   46 1
  66   33   78 1
  67   34   35 ar
  68   34   36 ar
  69   34   48 1
  70   35   41 1
  71   35   39 ar
  72   36   37 ar
  73   36   79 1
  74   37   38 ar
  75   37   80 1
  76   38   39 ar
  77   38   40 1
  78   39   81 1
  79   40   42 1
  80   41   43 1
  81   42   82 1
  82   42   83 1
  83   42   84 1
  84   43   44 1
  85   43   85 1
  86   43   86 1
  87   44   87 1
  88   44   88 1
  89   44   89 1
  90   45   90 1
  91   45   91 1
  92   45   92 1
  93   46   47 3
  94   48   49 2
  95   48   50 2
  96   51   53 1
  97   52   53 1
  98   52   93 1
  99   52   94 1
 100   52   95 1
 101   53   96 1
 102   53   97 1

#	End of record

