#	Name: ASD01152477
#	Creating user name:	WinNT
#	Creation time:	15. 06. 2019 19:05

#	Modifying user name:	WinNT
#	Modification time:	15. 06. 2019 19:05

#	Program:	/corina/corina34_cracker 3.40 0067  02.08.2006

@<TRIPOS>MOLECULE
ASD01152477
  59   62    0    0    0
SMALL
NO_CHARGES


@<TRIPOS>ATOM
   1 C1             0.1114     1.1571    -0.6959 C.2     
   2 N2             0.0189    -0.1436    -0.6175 N.2     
   3 N3            -1.1205    -0.7661    -0.1080 N.am    
   4 C4            -2.2615    -0.0993     0.1330 C.2     
   5 C5            -2.3924     1.3536    -0.2592 C.3     
   6 C6            -1.0084     1.9736    -0.2035 C.2     
   7 C7            -2.9557     1.4586    -1.6778 C.3     
   8 O8            -0.8358     3.0970     0.2224 O.2     
   9 C9            -1.0734    -2.1389     0.1623 C.ar    
  10 O10           -3.1907    -0.6664     0.6673 O.2     
  11 C11           -3.1985     2.9070    -2.0160 C.ar    
  12 C12           -0.0101    -2.6693     0.8797 C.ar    
  13 C13           -2.0939    -2.9703    -0.2824 C.ar    
  14 C14           -2.0490    -4.3251    -0.0160 C.ar    
  15 C15           -0.9884    -4.8582     0.6946 C.ar    
  16 C16            0.0334    -4.0297     1.1463 C.ar    
  17 C17           -2.1963     3.6548    -2.6065 C.ar    
  18 C18           -4.4247     3.4834    -1.7402 C.ar    
  19 C19           -4.6519     4.8106    -2.0493 C.ar    
  20 C20           -3.6472     5.5671    -2.6375 C.ar    
  21 C21           -2.4163     4.9839    -2.9183 C.ar    
  22 N22           -3.8743     6.9107    -2.9515 N.3     
  23 F23           -1.4354     5.7161    -3.4902 F       
  24 C24           -4.9892     7.0490    -3.8997 C.3     
  25 C25           -5.2415     8.5349    -4.1692 C.3     
  26 O26           -4.0390     9.1369    -4.6559 O.3     
  27 C27           -2.9326     9.0213    -3.7570 C.3     
  28 C28           -2.6569     7.5404    -3.4834 C.3     
  29 F29           -0.9477    -6.1834     0.9543 F       
  30 O30            1.2212     1.7435    -1.2163 O.3     
  31 C31            2.2637     0.8753    -1.6654 C.3     
  32 N32            1.1045    -4.5683     1.8702 N.am    
  33 C33            1.7680    -3.8044     2.7605 C.2     
  34 O34            1.4983    -2.6269     2.8693 O.2     
  35 C35            2.8451    -4.4133     3.6209 C.3     
  36 H36           -3.0529     1.8665     0.4399 H       
  37 H37           -2.2419     1.0353    -2.3844 H       
  38 H38           -3.8952     0.9092    -1.7373 H       
  39 H39            0.7820    -2.0238     1.2294 H       
  40 H40           -2.9234    -2.5568    -0.8368 H       
  41 H41           -2.8435    -4.9693    -0.3628 H       
  42 H42           -1.2409     3.2005    -2.8240 H       
  43 H43           -5.2063     2.8950    -1.2827 H       
  44 H44           -5.6104     5.2592    -1.8340 H       
  45 H45           -4.7368     6.5474    -4.8340 H       
  46 H46           -5.8863     6.5987    -3.4749 H       
  47 H47           -6.0293     8.6408    -4.9150 H       
  48 H48           -5.5461     9.0258    -3.2449 H       
  49 H49           -2.0506     9.4791    -4.2048 H       
  50 H50           -3.1701     9.5264    -2.8208 H       
  51 H51           -1.8515     7.4487    -2.7547 H       
  52 H52           -2.3673     7.0467    -4.4110 H       
  53 H53            3.0888     1.4704    -2.0568 H       
  54 H54            2.6166     0.2693    -0.8309 H       
  55 H55            1.8808     0.2239    -2.4511 H       
  56 H56            1.3688    -5.4911     1.7308 H       
  57 H57            2.9446    -5.4724     3.3831 H       
  58 H58            3.7917    -3.9076     3.4302 H       
  59 H59            2.5780    -4.3003     4.6716 H       
@<TRIPOS>BOND
   1    1    2 2
   2    1   30 1
   3    1    6 1
   4    2    3 1
   5    3    4 am
   6    3    9 1
   7    4    5 1
   8    4   10 2
   9    5    6 1
  10    5    7 1
  11    5   36 1
  12    6    8 2
  13    7   11 1
  14    7   37 1
  15    7   38 1
  16    9   12 ar
  17    9   13 ar
  18   11   17 ar
  19   11   18 ar
  20   12   16 ar
  21   12   39 1
  22   13   14 ar
  23   13   40 1
  24   14   15 ar
  25   14   41 1
  26   15   16 ar
  27   15   29 1
  28   16   32 1
  29   17   21 ar
  30   17   42 1
  31   18   19 ar
  32   18   43 1
  33   19   20 ar
  34   19   44 1
  35   20   21 ar
  36   20   22 1
  37   21   23 1
  38   22   24 1
  39   22   28 1
  40   24   25 1
  41   24   45 1
  42   24   46 1
  43   25   26 1
  44   25   47 1
  45   25   48 1
  46   26   27 1
  47   27   28 1
  48   27   49 1
  49   27   50 1
  50   28   51 1
  51   28   52 1
  52   30   31 1
  53   31   53 1
  54   31   54 1
  55   31   55 1
  56   32   33 am
  57   32   56 1
  58   33   34 2
  59   33   35 1
  60   35   57 1
  61   35   58 1
  62   35   59 1

#	End of record

