#	Name: ASD01230517
#	Creating user name:	WinNT
#	Creation time:	15. 06. 2019 19:14

#	Modifying user name:	WinNT
#	Modification time:	15. 06. 2019 19:14

#	Program:	/corina/corina34_cracker 3.40 0067  02.08.2006

@<TRIPOS>MOLECULE
ASD01230517
  51   54    0    0    0
SMALL
NO_CHARGES


@<TRIPOS>ATOM
   1 S1            -1.6212     2.7528     1.5549 S.o2    
   2 N2            -1.3522     1.2758     0.8764 N.am    
   3 C3            -0.2274     0.8823     0.4277 C.2     
   4 N4             0.9288     1.6183     0.4826 N.pl3   
   5 C5             1.1094     2.6847     1.4611 C.3     
   6 C6            -0.0647     3.6616     1.3706 C.3     
   7 C7            -0.0955    -0.4911    -0.2105 C.3     
   8 C8             1.2817    -1.0401     0.1703 C.3     
   9 C9             2.3973    -0.1594    -0.3764 C.3     
  10 C10            1.9803     1.3019    -0.4898 C.3     
  11 C11           -1.1740    -1.4049     0.3120 C.ar    
  12 C12           -2.0841    -1.9692    -0.5628 C.ar    
  13 C13           -3.0736    -2.8071    -0.0864 C.ar    
  14 C14           -3.1535    -3.0827     1.2712 C.ar    
  15 C15           -2.2387    -2.5154     2.1468 C.ar    
  16 C16           -1.2482    -1.6820     1.6646 C.ar    
  17 O17           -4.1262    -3.9063     1.7424 O.3     
  18 C18           -4.9322    -4.5236     0.8392 C.ar    
  19 C19           -4.5699    -5.7551     0.3118 C.ar    
  20 C20           -5.3912    -6.3806    -0.6056 C.ar    
  21 C21           -6.5734    -5.7807    -0.9992 C.ar    
  22 C22           -6.9367    -4.5539    -0.4753 C.ar    
  23 C23           -6.1216    -3.9266     0.4470 C.ar    
  24 C24           -7.4671    -6.4651    -2.0012 C.3     
  25 C25           -4.9984    -7.7179    -1.1788 C.3     
  26 O26           -2.6316     3.3300     0.7394 O.2     
  27 O27           -1.8680     2.4653     2.9245 O.2     
  28 H28            1.1494     2.2563     2.4626 H       
  29 H29            2.0395     3.2141     1.2545 H       
  30 H30           -0.0480     4.1611     0.4019 H       
  31 H31            0.0186     4.4044     2.1640 H       
  32 H32           -0.1739    -0.4054    -1.2943 H       
  33 H33            1.3609    -1.0836     1.2565 H       
  34 H34            1.3897    -2.0461    -0.2352 H       
  35 H35            3.2598    -0.2301     0.2864 H       
  36 H36            2.6823    -0.5229    -1.3637 H       
  37 H37            1.6074     1.4917    -1.4963 H       
  38 H38            2.8456     1.9377    -0.3024 H       
  39 H39           -2.0214    -1.7543    -1.6193 H       
  40 H40           -3.7846    -3.2470    -0.7700 H       
  41 H41           -2.2987    -2.7283     3.2039 H       
  42 H42           -0.5334    -1.2435     2.3452 H       
  43 H43           -3.6464    -6.2237     0.6183 H       
  44 H44           -7.8605    -4.0875    -0.7843 H       
  45 H45           -6.4078    -2.9701     0.8590 H       
  46 H46           -8.1779    -7.1041    -1.4772 H       
  47 H47           -8.0089    -5.7147    -2.5769 H       
  48 H48           -6.8609    -7.0715    -2.6741 H       
  49 H49           -5.3987    -8.5140    -0.5509 H       
  50 H50           -5.4009    -7.8134    -2.1872 H       
  51 H51           -3.9116    -7.7936    -1.2127 H       
@<TRIPOS>BOND
   1    1    2 am
   2    1    6 1
   3    1   26 2
   4    1   27 2
   5    2    3 2
   6    3    4 1
   7    3    7 1
   8    4    5 1
   9    4   10 1
  10    5    6 1
  11    5   28 1
  12    5   29 1
  13    6   30 1
  14    6   31 1
  15    7    8 1
  16    7   11 1
  17    7   32 1
  18    8    9 1
  19    8   33 1
  20    8   34 1
  21    9   10 1
  22    9   35 1
  23    9   36 1
  24   10   37 1
  25   10   38 1
  26   11   12 ar
  27   11   16 ar
  28   12   13 ar
  29   12   39 1
  30   13   14 ar
  31   13   40 1
  32   14   15 ar
  33   14   17 1
  34   15   16 ar
  35   15   41 1
  36   16   42 1
  37   17   18 1
  38   18   19 ar
  39   18   23 ar
  40   19   20 ar
  41   19   43 1
  42   20   21 ar
  43   20   25 1
  44   21   22 ar
  45   21   24 1
  46   22   23 ar
  47   22   44 1
  48   23   45 1
  49   24   46 1
  50   24   47 1
  51   24   48 1
  52   25   49 1
  53   25   50 1
  54   25   51 1

#	End of record

