#	Name: ASD01230438
#	Creating user name:	WinNT
#	Creation time:	15. 06. 2019 19:14

#	Modifying user name:	WinNT
#	Modification time:	15. 06. 2019 19:14

#	Program:	/corina/corina34_cracker 3.40 0067  02.08.2006

@<TRIPOS>MOLECULE
ASD01230438
  46   49    0    0    0
SMALL
NO_CHARGES


@<TRIPOS>ATOM
   1 C1             4.5080     8.5947     0.8699 C.1     
   2 C2             3.3278     7.8126     0.6551 C.ar    
   3 C3             2.7067     7.1694     1.7312 C.ar    
   4 C4             1.5707     6.4176     1.5190 C.ar    
   5 C5             1.0435     6.2985     0.2390 C.ar    
   6 C6             1.6578     6.9362    -0.8325 C.ar    
   7 C7             2.7894     7.6943    -0.6292 C.ar    
   8 N8             5.4443     9.2150     1.0403 N.1     
   9 O9            -0.0747     5.5567     0.0341 O.3     
  10 C10           -1.2798     6.1728     0.1540 C.ar    
  11 C11           -1.3419     7.5422     0.3696 C.ar    
  12 C12           -2.5683     8.1661     0.4906 C.ar    
  13 C13           -3.7334     7.4274     0.3975 C.ar    
  14 C14           -3.6744     6.0628     0.1827 C.ar    
  15 C15           -2.4506     5.4347     0.0552 C.ar    
  16 S16           -6.0699     7.4799    -3.2861 S.o2    
  17 N17           -5.2968     7.6792    -1.8450 N.am    
  18 C18           -5.8825     7.9097    -0.7381 C.2     
  19 N19           -7.2433     7.9847    -0.5827 N.pl3   
  20 C20           -8.1557     7.3467    -1.5250 C.3     
  21 C21           -7.8199     7.8036    -2.9461 C.3     
  22 C22           -5.0700     8.1107     0.5309 C.3     
  23 C23           -5.8616     7.4858     1.6825 C.3     
  24 C24           -7.2041     8.1798     1.8698 C.3     
  25 C25           -7.7536     8.7426     0.5646 C.3     
  26 O26           -5.5289     8.5005    -4.1137 O.2     
  27 O27           -5.8714     6.1082    -3.5992 O.2     
  28 Cl28           3.3657     7.3170     3.3305 Cl      
  29 H29            1.0902     5.9205     2.3487 H       
  30 H30            1.2446     6.8403    -1.8257 H       
  31 H31            3.2630     8.1929    -1.4620 H       
  32 H32           -0.4321     8.1195     0.4431 H       
  33 H33           -2.6172     9.2319     0.6584 H       
  34 H34           -4.5859     5.4880     0.1107 H       
  35 H35           -2.4051     4.3695    -0.1166 H       
  36 H36           -8.0503     6.2640    -1.4568 H       
  37 H37           -9.1811     7.6282    -1.2854 H       
  38 H38           -8.0171     8.8714    -3.0407 H       
  39 H39           -8.4360     7.2557    -3.6591 H       
  40 H40           -4.9253     9.1754     0.7138 H       
  41 H41           -6.0319     6.4309     1.4677 H       
  42 H42           -5.2831     7.5731     2.6022 H       
  43 H43           -7.9189     7.4628     2.2737 H       
  44 H44           -7.0835     8.9953     2.5829 H       
  45 H45           -7.4523     9.7857     0.4684 H       
  46 H46           -8.8419     8.6838     0.5783 H       
@<TRIPOS>BOND
   1    1    2 1
   2    1    8 3
   3    2    3 ar
   4    2    7 ar
   5    3    4 ar
   6    3   28 1
   7    4    5 ar
   8    4   29 1
   9    5    6 ar
  10    5    9 1
  11    6    7 ar
  12    6   30 1
  13    7   31 1
  14    9   10 1
  15   10   11 ar
  16   10   15 ar
  17   11   12 ar
  18   11   32 1
  19   12   13 ar
  20   12   33 1
  21   13   14 ar
  22   13   22 1
  23   14   15 ar
  24   14   34 1
  25   15   35 1
  26   16   17 am
  27   16   21 1
  28   16   26 2
  29   16   27 2
  30   17   18 2
  31   18   19 1
  32   18   22 1
  33   19   20 1
  34   19   25 1
  35   20   21 1
  36   20   36 1
  37   20   37 1
  38   21   38 1
  39   21   39 1
  40   22   23 1
  41   22   40 1
  42   23   24 1
  43   23   41 1
  44   23   42 1
  45   24   25 1
  46   24   43 1
  47   24   44 1
  48   25   45 1
  49   25   46 1

#	End of record

