#	Name: ASD00460012
#	Creating user name:	WinNT
#	Creation time:	15. 06. 2019 18:36

#	Modifying user name:	WinNT
#	Modification time:	15. 06. 2019 18:36

#	Program:	/corina/corina34_cracker 3.40 0067  02.08.2006

@<TRIPOS>MOLECULE
ASD00460012
  72   76    0    0    0
SMALL
NO_CHARGES


@<TRIPOS>ATOM
   1 C1             0.0181     1.3729     0.2858 C.ar    
   2 C2             0.0363    -0.0052     0.2755 C.ar    
   3 C3             1.2074    -0.6865    -0.0127 C.ar    
   4 C4             2.3683     0.0071    -0.2931 C.ar    
   5 C5             2.3683     1.3935    -0.2872 C.ar    
   6 C6             1.1855     2.0869     0.0039 C.ar    
   7 O7             3.5085     2.0762    -0.5622 O.3     
   8 C8             4.6748     1.3022    -0.8496 C.3     
   9 C9             5.8514     2.2384    -1.1323 C.3     
  10 C10            7.1266     1.4135    -1.3171 C.3     
  11 N11            8.2758     2.3159    -1.4694 N.3     
  12 C12            9.5207     1.5571    -1.6494 C.3     
  13 C13           10.6924     2.5288    -1.8041 C.3     
  14 C14           11.9695     1.7505    -1.9888 C.ar    
  15 O15            5.5906     2.9853    -2.3224 O.3     
  16 C16            9.7556     0.6654    -0.4285 C.3     
  17 C17            9.4109     0.6869    -2.9030 C.3     
  18 C18            1.2149    -2.1934    -0.0199 C.3     
  19 C19            1.3589    -2.7432     1.4321 C.3     
  20 C20            0.2984    -1.9512     2.2564 C.3     
  21 C21           -1.0632    -2.4946     1.7660 C.3     
  22 C22           -0.6971    -3.5637     0.6916 C.3     
  23 C23           -0.1467    -2.7368    -0.5103 C.3     
  24 C24            0.6387    -4.1305     1.2898 C.3     
  25 C25           -0.5975    -2.7566     3.1996 C.3     
  26 C26           12.3898     1.4039    -3.2592 C.ar    
  27 C27           13.5611     0.6894    -3.4301 C.ar    
  28 C28           14.3129     0.3209    -2.3309 C.ar    
  29 C29           13.8931     0.6679    -1.0577 C.ar    
  30 C30           12.7230     1.3883    -0.8881 C.ar    
  31 F31           14.6273     0.3082     0.0178 F       
  32 C32           15.5890    -0.4587    -2.5174 C.3     
  33 C33           -1.2950    -2.0057     4.3044 C.2     
  34 O34           -1.1358    -0.8134     4.4186 O.2     
  35 O35           -2.0933    -2.6613     5.1615 O.3     
  36 C36            1.1736     3.5188     0.0123 C.1     
  37 N37            1.1642     4.6548     0.0191 N.1     
  38 H38           -0.8981     1.9000     0.5070 H       
  39 H39           -0.8665    -0.5563     0.4935 H       
  40 H40            3.2774    -0.5313    -0.5169 H       
  41 H41            4.9112     0.6698     0.0062 H       
  42 H42            4.4899     0.6771    -1.7232 H       
  43 H43            5.9801     2.9235    -0.2943 H       
  44 H44            7.2774     0.7773    -0.4450 H       
  45 H45            7.0318     0.7925    -2.2079 H       
  46 H46            8.1312     2.9598    -2.2326 H       
  47 H47           10.5251     3.1641    -2.6739 H       
  48 H48           10.7706     3.1488    -0.9111 H       
  49 H49            5.4652     2.4387    -3.1102 H       
  50 H50            8.9209    -0.0268    -0.3182 H       
  51 H51           10.6793     0.1024    -0.5620 H       
  52 H52            9.8338     1.2854     0.4646 H       
  53 H53            9.2436     1.3222    -3.7728 H       
  54 H54           10.3346     0.1239    -3.0365 H       
  55 H55            8.5762    -0.0054    -2.7927 H       
  56 H56            2.0234    -2.5656    -0.6490 H       
  57 H57            2.3696    -2.7525     1.8401 H       
  58 H58            0.4766    -0.8906     2.4336 H       
  59 H59           -1.9173    -1.8460     1.5714 H       
  60 H60           -1.4769    -4.2875     0.4547 H       
  61 H61           -0.8215    -1.9139    -0.7461 H       
  62 H62           -0.0087    -3.3778    -1.3810 H       
  63 H63            1.1534    -4.7883     0.5896 H       
  64 H64            0.4826    -4.6110     2.2556 H       
  65 H65           -0.2824    -3.7701     3.4479 H       
  66 H66           11.8026     1.6912    -4.1189 H       
  67 H67           13.8884     0.4189    -4.4231 H       
  68 H68           12.3946     1.6594     0.1043 H       
  69 H69           16.4243     0.2327    -2.6285 H       
  70 H70           15.7567    -1.0945    -1.6481 H       
  71 H71           15.5090    -1.0783    -3.4107 H       
  72 H72           -2.5190    -2.1370     5.8536 H       
@<TRIPOS>BOND
   1    1    2 ar
   2    1    6 ar
   3    1   38 1
   4    2    3 ar
   5    2   39 1
   6    3    4 ar
   7    3   18 1
   8    4    5 ar
   9    4   40 1
  10    5    6 ar
  11    5    7 1
  12    6   36 1
  13    7    8 1
  14    8    9 1
  15    8   41 1
  16    8   42 1
  17    9   10 1
  18    9   15 1
  19    9   43 1
  20   10   11 1
  21   10   44 1
  22   10   45 1
  23   11   12 1
  24   11   46 1
  25   12   13 1
  26   12   16 1
  27   12   17 1
  28   13   14 1
  29   13   47 1
  30   13   48 1
  31   14   26 ar
  32   14   30 ar
  33   15   49 1
  34   16   50 1
  35   16   51 1
  36   16   52 1
  37   17   53 1
  38   17   54 1
  39   17   55 1
  40   18   19 1
  41   18   23 1
  42   18   56 1
  43   19   20 1
  44   19   24 1
  45   19   57 1
  46   20   21 1
  47   20   25 1
  48   20   58 1
  49   21   22 1
  50   21   25 1
  51   21   59 1
  52   22   23 1
  53   22   24 1
  54   22   60 1
  55   23   61 1
  56   23   62 1
  57   24   63 1
  58   24   64 1
  59   25   33 1
  60   25   65 1
  61   26   27 ar
  62   26   66 1
  63   27   28 ar
  64   27   67 1
  65   28   29 ar
  66   28   32 1
  67   29   30 ar
  68   29   31 1
  69   30   68 1
  70   32   69 1
  71   32   70 1
  72   32   71 1
  73   33   34 2
  74   33   35 1
  75   35   72 1
  76   36   37 3

#	End of record

