#	Name: ASD03621003
#	Creating user name:	WinNT
#	Creation time:	15. 06. 2019 20:43

#	Modifying user name:	WinNT
#	Modification time:	15. 06. 2019 20:43

#	Program:	/corina/corina34_cracker 3.40 0067  02.08.2006

@<TRIPOS>MOLECULE
ASD03621003
  88   91    0    0    0
SMALL
NO_CHARGES


@<TRIPOS>ATOM
   1 C1            -0.9864     2.8211    -1.9834 C.ar    
   2 C2            -1.2009     1.4800    -1.7255 C.ar    
   3 C3            -0.1769     0.7011    -1.2200 C.ar    
   4 C4             1.0616     1.2630    -0.9727 C.ar    
   5 C5             1.2763     2.6039    -1.2314 C.ar    
   6 C6             0.2520     3.3832    -1.7357 C.ar    
   7 C7             2.1776     0.4140    -0.4206 C.3     
   8 C8             2.9593    -0.1902    -1.5586 C.2     
   9 N9             4.0115    -0.9923    -1.3023 N.am    
  10 O10            2.6414     0.0455    -2.7050 O.2     
  11 C11            4.7714    -1.5797    -2.4086 C.3     
  12 C12            5.8170    -0.5989    -2.8760 C.2     
  13 N13            7.0544    -0.6373    -2.3606 N.am    
  14 C14            7.6292    -1.7103    -1.5318 C.3     
  15 C15            6.5214    -2.5372    -0.8950 C.3     
  16 C16            5.4498    -2.8652    -1.9343 C.3     
  17 O17            5.5384     0.2261    -3.7202 O.2     
  18 C18            8.0900     0.4024    -2.4676 C.3     
  19 C19            8.9996     0.2572    -1.2311 C.3     
  20 C20            8.4239    -0.9475    -0.4481 C.3     
  21 C21            7.4505     1.7669    -2.4789 C.2     
  22 N22            8.2187     2.8705    -2.5711 N.am    
  23 O23            6.2445     1.8720    -2.4051 O.2     
  24 C24            7.5970     4.1970    -2.5821 C.3     
  25 C25            8.5856     5.2192    -2.0832 C.2     
  26 N26            8.2315     6.5173    -2.0061 N.am    
  27 O27            9.6997     4.8737    -1.7512 O.2     
  28 C28            7.1745     4.5503    -4.0095 C.3     
  29 C29            6.0796     3.5863    -4.4707 C.3     
  30 C30            9.1521     7.4940    -1.4188 C.3     
  31 C31            9.1830     8.7527    -2.2881 C.3     
  32 C32            8.6785     7.8584    -0.0103 C.3     
  33 C33            8.7649     6.6445     0.8785 C.ar    
  34 C34            9.9244     6.3865     1.5854 C.ar    
  35 C35           10.0037     5.2730     2.4007 C.ar    
  36 C36            8.9232     4.4177     2.5094 C.ar    
  37 C37            7.7633     4.6761     1.8032 C.ar    
  38 C38            7.6825     5.7920     0.9913 C.ar    
  39 C39            5.6570     3.9397    -5.8981 C.3     
  40 N40            4.6086     3.0166    -6.3397 N.am    
  41 C41            4.0798     3.1379    -7.5734 C.2     
  42 N42            3.1152     2.2887    -7.9797 N.am    
  43 O43            4.4728     4.0135    -8.3199 O.2     
  44 H44            8.2835    -2.3454    -2.1289 H       
  45 C45            9.7789     8.4206    -3.6318 C.2     
  46 O46           10.1092     7.2857    -3.8824 O.2     
  47 O47            9.9426     9.3856    -4.5503 O.3     
  48 H48           -1.7851     3.4287    -2.3826 H       
  49 H49           -2.1685     1.0410    -1.9187 H       
  50 H50           -0.3447    -0.3465    -1.0178 H       
  51 H51            2.2437     3.0431    -1.0376 H       
  52 H52            0.4196     4.4308    -1.9375 H       
  53 H53            2.8387     1.0327     0.1862 H       
  54 H54            1.7583    -0.3818     0.1950 H       
  55 H55            4.2658    -1.1808    -0.3854 H       
  56 H56            4.0951    -1.8091    -3.2320 H       
  57 H57            6.9412    -3.4640    -0.5038 H       
  58 H58            6.0725    -1.9724    -0.0780 H       
  59 H59            4.7044    -3.5246    -1.4898 H       
  60 H60            5.9121    -3.3657    -2.7851 H       
  61 H61            8.6721     0.2560    -3.3774 H       
  62 H62           10.0257     0.0540    -1.5377 H       
  63 H63            8.9573     1.1600    -0.6218 H       
  64 H64            7.7626    -0.6092     0.3496 H       
  65 H65            9.2264    -1.5679    -0.0491 H       
  66 H66            9.1833     2.7864    -2.6302 H       
  67 H67            6.7205     4.1928    -1.9342 H       
  68 H68            7.3672     6.8050    -2.3394 H       
  69 H69            6.7934     5.5713    -4.0334 H       
  70 H70            8.0346     4.4679    -4.6740 H       
  71 H71            6.4607     2.5654    -4.4468 H       
  72 H72            5.2194     3.6687    -3.8063 H       
  73 H73           10.1524     7.0643    -1.3659 H       
  74 H74            8.1679     9.1260    -2.4230 H       
  75 H75            9.7891     9.5162    -1.8005 H       
  76 H76            9.3112     8.6494     0.3925 H       
  77 H77            7.6460     8.2051    -0.0525 H       
  78 H78           10.7686     7.0548     1.5005 H       
  79 H79           10.9099     5.0711     2.9524 H       
  80 H80            8.9853     3.5473     3.1458 H       
  81 H81            6.9192     4.0077     1.8878 H       
  82 H82            6.7763     5.9939     0.4395 H       
  83 H83            5.2759     4.9606    -5.9220 H       
  84 H84            6.5171     3.8573    -6.5626 H       
  85 H85            4.2950     2.3181    -5.7442 H       
  86 H86            2.8017     1.5902    -7.3841 H       
  87 H87            2.7346     2.3761    -8.8676 H       
  88 H88           10.3289     9.1244    -5.3975 H       
@<TRIPOS>BOND
   1    1    2 ar
   2    1    6 ar
   3    1   48 1
   4    2    3 ar
   5    2   49 1
   6    3    4 ar
   7    3   50 1
   8    4    5 ar
   9    4    7 1
  10    5    6 ar
  11    5   51 1
  12    6   52 1
  13    7    8 1
  14    7   53 1
  15    7   54 1
  16    8    9 am
  17    8   10 2
  18    9   11 1
  19    9   55 1
  20   11   12 1
  21   11   16 1
  22   11   56 1
  23   12   13 am
  24   12   17 2
  25   13   14 1
  26   13   18 1
  27   14   15 1
  28   14   44 1
  29   14   20 1
  30   15   16 1
  31   15   57 1
  32   15   58 1
  33   16   59 1
  34   16   60 1
  35   18   19 1
  36   18   21 1
  37   18   61 1
  38   19   20 1
  39   19   62 1
  40   19   63 1
  41   20   64 1
  42   20   65 1
  43   21   22 am
  44   21   23 2
  45   22   24 1
  46   22   66 1
  47   24   25 1
  48   24   28 1
  49   24   67 1
  50   25   26 am
  51   25   27 2
  52   26   30 1
  53   26   68 1
  54   28   29 1
  55   28   69 1
  56   28   70 1
  57   29   39 1
  58   29   71 1
  59   29   72 1
  60   30   31 1
  61   30   32 1
  62   30   73 1
  63   31   45 1
  64   31   74 1
  65   31   75 1
  66   32   33 1
  67   32   76 1
  68   32   77 1
  69   33   34 ar
  70   33   38 ar
  71   34   35 ar
  72   34   78 1
  73   35   36 ar
  74   35   79 1
  75   36   37 ar
  76   36   80 1
  77   37   38 ar
  78   37   81 1
  79   38   82 1
  80   39   40 1
  81   39   83 1
  82   39   84 1
  83   40   41 am
  84   40   85 1
  85   41   42 am
  86   41   43 2
  87   42   86 1
  88   42   87 1
  89   45   46 2
  90   45   47 1
  91   47   88 1

#	End of record

