#	Name: ASD00111035
#	Creating user name:	WinNT
#	Creation time:	15. 06. 2019 18:30

#	Modifying user name:	WinNT
#	Modification time:	15. 06. 2019 18:30

#	Program:	/corina/corina34_cracker 3.40 0067  02.08.2006

@<TRIPOS>MOLECULE
ASD00111035
  27   28    0    0    0
SMALL
NO_CHARGES


@<TRIPOS>ATOM
   1 C1            -0.0167     1.3791     0.0096 C.ar    
   2 C2             0.0021    -0.0041     0.0020 C.ar    
   3 C3             1.2100    -0.6811    -0.0123 C.ar    
   4 C4             2.3931     0.0334    -0.0193 C.ar    
   5 C5             2.3738     1.4069    -0.0123 C.ar    
   6 C6             1.1711     2.0882     0.0021 C.ar    
   7 C7             3.7168    -0.7027    -0.0335 C.3     
   8 C8             4.3738    -0.4842    -1.4002 C.3     
   9 N9             5.1187     0.7640    -1.4225 N.3     
  10 C10            4.3388     1.9904    -1.3897 C.3     
  11 C11            3.6768     2.1794    -0.0203 C.3     
  12 C12            3.3972     3.6648     0.2168 C.3     
  13 Cl13          -1.4898    -0.8918     0.0110 Cl      
  14 H14           -0.9595     1.9058     0.0170 H       
  15 H15            1.2274    -1.7609    -0.0176 H       
  16 H16            1.1588     3.1682     0.0077 H       
  17 H17            4.3635    -0.3112     0.7518 H       
  18 H18            3.5469    -1.7674     0.1265 H       
  19 H19            5.0532    -1.3109    -1.6076 H       
  20 H20            3.6014    -0.4545    -2.1686 H       
  21 H21            5.8339     0.7711    -0.7108 H       
  22 H22            4.9944     2.8376    -1.5908 H       
  23 H23            3.5670     1.9450    -2.1581 H       
  24 H24            4.3345     1.7994     0.7614 H       
  25 H25            2.7310     4.0378    -0.5611 H       
  26 H26            2.9266     3.7949     1.1913 H       
  27 H27            4.3348     4.2199     0.1891 H       
@<TRIPOS>BOND
   1    1    2 ar
   2    1    6 ar
   3    1   14 1
   4    2    3 ar
   5    2   13 1
   6    3    4 ar
   7    3   15 1
   8    4    5 ar
   9    4    7 1
  10    5    6 ar
  11    5   11 1
  12    6   16 1
  13    7    8 1
  14    7   17 1
  15    7   18 1
  16    8    9 1
  17    8   19 1
  18    8   20 1
  19    9   10 1
  20    9   21 1
  21   10   11 1
  22   10   22 1
  23   10   23 1
  24   11   12 1
  25   11   24 1
  26   12   25 1
  27   12   26 1
  28   12   27 1

#	End of record

