#	Name: ASD01850023
#	Creating user name:	WinNT
#	Creation time:	15. 06. 2019 19:38

#	Modifying user name:	WinNT
#	Modification time:	15. 06. 2019 19:38

#	Program:	/corina/corina34_cracker 3.40 0067  02.08.2006

@<TRIPOS>MOLECULE
ASD01850023
  45   49    0    0    0
SMALL
NO_CHARGES


@<TRIPOS>ATOM
   1 F1             0.2210     0.3913     1.0613 F       
   2 C2             0.1123     1.7144     0.8107 C.ar    
   3 C3             1.2456     2.5091     0.7799 C.ar    
   4 C4             1.1332     3.8624     0.5229 C.ar    
   5 C5            -0.1102     4.4226     0.2967 C.ar    
   6 C6            -1.2426     3.6301     0.3277 C.ar    
   7 C7            -1.1320     2.2756     0.5788 C.ar    
   8 C8            -0.2315     5.8983     0.0166 C.3     
   9 N9             0.9614     6.3993    -0.6764 N.am    
  10 C10            1.8752     6.9006     0.3725 C.3     
  11 C11            1.1117     6.7207     1.7070 C.3     
  12 N12           -0.2974     6.6751     1.2792 N.am    
  13 C13           -1.5698     7.0230     1.4734 C.2     
  14 O14           -2.0427     7.3894     2.5315 O.2     
  15 C15           -2.3174     6.8946     0.2039 C.ar    
  16 C16           -1.5020     6.2000    -0.7256 C.ar    
  17 C17           -1.9581     5.9618    -2.0014 C.ar    
  18 C18           -3.2198     6.3900    -2.3779 C.ar    
  19 C19           -4.0270     7.0585    -1.4740 C.ar    
  20 C20           -3.5925     7.3065    -0.1829 C.ar    
  21 C21            1.1808     6.4013    -2.0062 C.2     
  22 O22            0.3867     5.8650    -2.7541 O.2     
  23 C23            2.3876     7.0558    -2.5554 C.ar    
  24 C24            2.5338     7.2111    -3.9344 C.ar    
  25 C25            3.6636     7.8241    -4.4422 C.ar    
  26 F26            3.8065     7.9751    -5.7772 F       
  27 C27            4.6496     8.2843    -3.5849 C.ar    
  28 C28            4.5099     8.1324    -2.2151 C.ar    
  29 C29            3.3817     7.5257    -1.6961 C.ar    
  30 F30            5.4757     8.5828    -1.3847 F       
  31 H31            2.2171     2.0718     0.9569 H       
  32 H32            2.0171     4.4825     0.4992 H       
  33 H33           -2.2135     4.0689     0.1515 H       
  34 H34           -2.0168     1.6567     0.6029 H       
  35 H35            2.7948     6.3156     0.3824 H       
  36 H36            2.0993     7.9541     0.2053 H       
  37 H37            1.3977     5.7873     2.1919 H       
  38 H38            1.2864     7.5692     2.3684 H       
  39 H39           -1.3314     5.4408    -2.7101 H       
  40 H40           -3.5752     6.2020    -3.3802 H       
  41 H41           -5.0120     7.3859    -1.7724 H       
  42 H42           -4.2325     7.8291     0.5125 H       
  43 H43            1.7657     6.8526    -4.6037 H       
  44 H44            5.5307     8.7631    -3.9860 H       
  45 H45            3.2736     7.4081    -0.6280 H       
@<TRIPOS>BOND
   1    1    2 1
   2    2    3 ar
   3    2    7 ar
   4    3    4 ar
   5    3   31 1
   6    4    5 ar
   7    4   32 1
   8    5    6 ar
   9    5    8 1
  10    6    7 ar
  11    6   33 1
  12    7   34 1
  13    8    9 1
  14    8   12 1
  15    8   16 1
  16    9   10 1
  17    9   21 am
  18   10   11 1
  19   10   35 1
  20   10   36 1
  21   11   12 1
  22   11   37 1
  23   11   38 1
  24   12   13 am
  25   13   14 2
  26   13   15 1
  27   15   16 ar
  28   15   20 ar
  29   16   17 ar
  30   17   18 ar
  31   17   39 1
  32   18   19 ar
  33   18   40 1
  34   19   20 ar
  35   19   41 1
  36   20   42 1
  37   21   22 2
  38   21   23 1
  39   23   24 ar
  40   23   29 ar
  41   24   25 ar
  42   24   43 1
  43   25   26 1
  44   25   27 ar
  45   27   28 ar
  46   27   44 1
  47   28   29 ar
  48   28   30 1
  49   29   45 1

#	End of record

