#	Name: ASD01884166
#	Creating user name:	WinNT
#	Creation time:	15. 06. 2019 19:47

#	Modifying user name:	WinNT
#	Modification time:	15. 06. 2019 19:47

#	Program:	/corina/corina34_cracker 3.40 0067  02.08.2006

@<TRIPOS>MOLECULE
ASD01884166
  49   53    0    0    0
SMALL
NO_CHARGES


@<TRIPOS>ATOM
   1 C1             0.0129     1.4325    -0.5273 C.ar    
   2 C2             0.0088     0.0394    -0.5349 C.ar    
   3 C3            -1.1639    -0.6409    -0.7859 C.ar    
   4 C4            -2.3405     0.0873    -1.0309 C.ar    
   5 C5            -2.2465     1.4823    -1.0043 C.ar    
   6 N6            -1.1098     2.1026    -0.7556 N.ar    
   7 N7            -3.6053    -0.3993    -1.2999 N.am    
   8 C8            -4.5965     0.4736    -1.5047 C.2     
   9 S9            -3.8762     2.0839    -1.3450 S.3     
  10 O10           -5.7596     0.2143    -1.7516 O.2     
  11 C11            1.2725     2.1679    -0.2577 C.ar    
  12 C12           -3.8547    -1.8417    -1.3600 C.3     
  13 C13           -4.2389    -2.3512     0.0306 C.3     
  14 C14           -4.6543    -3.8184     0.1555 C.3     
  15 C15           -3.3001    -3.3578     0.6985 C.3     
  16 F16           -2.1560    -3.7420    -0.0091 F       
  17 F17           -3.1533    -3.2811     2.0876 F       
  18 C18            2.4715     1.4714    -0.1152 C.ar    
  19 C19            3.6433     2.1574     0.1358 C.ar    
  20 C20            3.6324     3.5346     0.2466 C.ar    
  21 C21            2.4415     4.2376     0.1060 C.ar    
  22 C22            1.2613     3.5566    -0.1519 C.ar    
  23 N23            2.4345     5.6300     0.2187 N.3     
  24 C24            3.6381     6.2111    -0.3803 C.3     
  25 C25            2.2472     6.0429     1.6115 C.3     
  26 C26            1.8235     7.5139     1.6667 C.3     
  27 C27            3.4263     7.7078    -0.6286 C.3     
  28 S28            3.1598     8.5313     0.9703 S.o2    
  29 O29            2.6591     9.8395     0.7312 O.2     
  30 O30            4.3233     8.3638     1.7687 O.2     
  31 H31            0.9215    -0.5060    -0.3451 H       
  32 H32           -1.1780    -1.7208    -0.7944 H       
  33 H33           -4.6682    -2.0410    -2.0576 H       
  34 H34           -2.9530    -2.3525    -1.6978 H       
  35 H35           -4.7425    -1.6290     0.6733 H       
  36 H36           -5.4309    -4.0615     0.8807 H       
  37 H37           -4.6539    -4.4207    -0.7529 H       
  38 H38            2.4839     0.3949    -0.2008 H       
  39 H39            4.5711     1.6157     0.2462 H       
  40 H40            4.5517     4.0663     0.4434 H       
  41 H41            0.3349     4.1007    -0.2618 H       
  42 H42            4.4821     6.0721     0.2953 H       
  43 H43            3.8479     5.7132    -1.3270 H       
  44 H44            1.4750     5.4262     2.0713 H       
  45 H45            3.1828     5.9149     2.1560 H       
  46 H46            0.9142     7.6547     1.0824 H       
  47 H47            1.6444     7.8043     2.7020 H       
  48 H48            4.3084     8.1265    -1.1130 H       
  49 H49            2.5532     7.8530    -1.2648 H       
@<TRIPOS>BOND
   1    1    2 ar
   2    1   11 1
   3    1    6 ar
   4    2    3 ar
   5    2   31 1
   6    3    4 ar
   7    3   32 1
   8    4    5 ar
   9    4    7 1
  10    5    6 ar
  11    5    9 1
  12    7    8 am
  13    7   12 1
  14    8    9 1
  15    8   10 2
  16   11   18 ar
  17   11   22 ar
  18   12   13 1
  19   12   33 1
  20   12   34 1
  21   13   14 1
  22   13   15 1
  23   13   35 1
  24   14   15 1
  25   14   36 1
  26   14   37 1
  27   15   16 1
  28   15   17 1
  29   18   19 ar
  30   18   38 1
  31   19   20 ar
  32   19   39 1
  33   20   21 ar
  34   20   40 1
  35   21   22 ar
  36   21   23 1
  37   22   41 1
  38   23   24 1
  39   23   25 1
  40   24   27 1
  41   24   42 1
  42   24   43 1
  43   25   26 1
  44   25   44 1
  45   25   45 1
  46   26   28 1
  47   26   46 1
  48   26   47 1
  49   27   28 1
  50   27   48 1
  51   27   49 1
  52   28   29 2
  53   28   30 2

#	End of record

