#	Name: ASD04012003
#	Creating user name:	WinNT
#	Creation time:	15. 06. 2019 20:48

#	Modifying user name:	WinNT
#	Modification time:	15. 06. 2019 20:48

#	Program:	/corina/corina34_cracker 3.40 0067  02.08.2006

@<TRIPOS>MOLECULE
ASD04012003
  28   30    0    0    0
SMALL
NO_CHARGES


@<TRIPOS>ATOM
   1 N1            -0.0169     1.3968     0.0097 N.pl3   
   2 C2             1.2883     1.8006    -0.0006 C.2     
   3 N3             1.5937     3.1033     0.0035 N.2     
   4 C4             0.6455     4.0232     0.0175 C.2     
   5 C5            -0.7045     3.6458     0.0284 C.2     
   6 C6            -1.0235     2.3190     0.0193 C.2     
   7 N7             0.0021    -0.0041     0.0020 N.2     
   8 C8             1.2596    -0.3714    -0.0120 C.2     
   9 N9             2.0384     0.7042    -0.0136 N.2     
  10 O10           -2.3170     1.9237     0.0289 O.3     
  11 C11           -1.7894     4.6917     0.0443 C.3     
  12 C12           -2.0516     5.1218     1.4647 C.ar    
  13 O13            0.9790     5.3359     0.0218 O.3     
  14 C14           -1.3452     6.1783     2.0085 C.ar    
  15 C15           -1.5856     6.5728     3.3113 C.ar    
  16 C16           -2.5328     5.9112     4.0702 C.ar    
  17 C17           -3.2399     4.8553     3.5261 C.ar    
  18 C18           -3.0025     4.4635     2.2218 C.ar    
  19 H19            1.6095    -1.3931    -0.0203 H       
  20 H20           -2.4350     0.9640     0.0212 H       
  21 H21           -1.4724     5.5530    -0.5435 H       
  22 H22           -2.7015     4.2756    -0.3835 H       
  23 H23            1.9320     5.4996     0.0139 H       
  24 H24           -0.6051     6.6952     1.4156 H       
  25 H25           -1.0332     7.3978     3.7364 H       
  26 H26           -2.7202     6.2190     5.0883 H       
  27 H27           -3.9797     4.3381     4.1191 H       
  28 H28           -3.5549     3.6386     1.7967 H       
@<TRIPOS>BOND
   1    1    7 1
   2    1    2 1
   3    1    6 1
   4    2    3 1
   5    2    9 2
   6    3    4 2
   7    4    5 1
   8    4   13 1
   9    5    6 2
  10    5   11 1
  11    6   10 1
  12    7    8 2
  13    8    9 1
  14    8   19 1
  15   10   20 1
  16   11   12 1
  17   11   21 1
  18   11   22 1
  19   12   14 ar
  20   12   18 ar
  21   13   23 1
  22   14   15 ar
  23   14   24 1
  24   15   16 ar
  25   15   25 1
  26   16   17 ar
  27   16   26 1
  28   17   18 ar
  29   17   27 1
  30   18   28 1

#	End of record

