#	Name: ASD00450013
#	Creating user name:	WinNT
#	Creation time:	15. 06. 2019 18:35

#	Modifying user name:	WinNT
#	Modification time:	15. 06. 2019 18:35

#	Program:	/corina/corina34_cracker 3.40 0067  02.08.2006

@<TRIPOS>MOLECULE
ASD00450013
  48   50    0    0    0
SMALL
NO_CHARGES


@<TRIPOS>ATOM
   1 C1             0.3395     1.6466    -1.2669 C.ar    
   2 C2             0.9473     0.4041    -0.6688 C.3     
   3 C3            -2.1610     5.5819    -0.4996 C.2     
   4 C4            -1.6450    11.6281    -4.5831 C.2     
   5 C5            -1.9460    12.3846    -3.3450 C.ar    
   6 N6            -2.1165     4.2394    -0.3897 N.am    
   7 C7            -2.3643    11.7041    -2.2062 C.ar    
   8 C8             0.7206     2.0633    -2.5300 C.ar    
   9 N9            -3.1472     6.2751     0.1031 N.am    
  10 C10           -0.6020     2.3652    -0.5560 C.ar    
  11 N11           -1.8090    13.7054    -3.3312 N.ar    
  12 C12           -2.6432    12.4298    -1.0508 C.ar    
  13 C13           -1.1619     3.5095    -1.1079 C.ar    
  14 O14           -1.3114     6.1678    -1.1426 O.2     
  15 O15           -1.7639    10.4189    -4.6004 O.2     
  16 O16           -3.0535    11.8038     0.0815 O.3     
  17 F17            0.4091     0.1881     0.6044 F       
  18 F18            0.6637    -0.6944    -1.4875 F       
  19 F19            2.3334     0.5650    -0.5680 F       
  20 C20            0.1643     3.2040    -3.0822 C.ar    
  21 N21           -1.2392    12.2813    -5.6900 N.am    
  22 C22           -3.1235     7.6761     0.0973 C.ar    
  23 C23           -3.0765    10.4444     0.0867 C.ar    
  24 C24           -2.0647    14.4179    -2.2545 C.ar    
  25 C25           -0.7737     3.9287    -2.3737 C.ar    
  26 Cl26           1.8992     1.1543    -3.4235 Cl      
  27 C27           -2.4904    13.8134    -1.0856 C.ar    
  28 C28           -4.3094     8.3912     0.1981 C.ar    
  29 C29           -1.9136     8.3498    -0.0035 C.ar    
  30 C30           -1.8908     9.7304    -0.0087 C.ar    
  31 C31           -4.2854     9.7718     0.1927 C.ar    
  32 C32           -0.9416    11.5334    -6.9140 C.3     
  33 H33           -2.7460     3.7789     0.1870 H       
  34 H34           -2.4715    10.6295    -2.2180 H       
  35 H35           -3.8734     5.8042     0.5410 H       
  36 H36           -0.9025     2.0369     0.4280 H       
  37 H37            0.4638     3.5274    -4.0681 H       
  38 H38           -1.1443    13.2465    -5.6762 H       
  39 H39           -1.9408    15.4903    -2.2843 H       
  40 H40           -1.2075     4.8187    -2.8050 H       
  41 H41           -2.6980    14.4077    -0.2080 H       
  42 H42           -5.2504     7.8677     0.2802 H       
  43 H43           -0.9905     7.7941    -0.0774 H       
  44 H44           -0.9501    10.2545    -0.0916 H       
  45 H45           -5.2080    10.3281     0.2674 H       
  46 H46           -1.8331    10.9960    -7.2373 H       
  47 H47           -0.6310    12.2258    -7.6965 H       
  48 H48           -0.1391    10.8219    -6.7191 H       
@<TRIPOS>BOND
   1    1    2 1
   2    1    8 ar
   3    1   10 ar
   4    2   17 1
   5    2   18 1
   6    2   19 1
   7    3    6 am
   8    3    9 am
   9    3   14 2
  10    4    5 1
  11    4   15 2
  12    4   21 am
  13    5    7 ar
  14    5   11 ar
  15    6   13 1
  16    6   33 1
  17    7   12 ar
  18    7   34 1
  19    8   20 ar
  20    8   26 1
  21    9   22 1
  22    9   35 1
  23   10   13 ar
  24   10   36 1
  25   11   24 ar
  26   12   16 1
  27   12   27 ar
  28   13   25 ar
  29   16   23 1
  30   20   25 ar
  31   20   37 1
  32   21   32 1
  33   21   38 1
  34   22   28 ar
  35   22   29 ar
  36   23   30 ar
  37   23   31 ar
  38   24   27 ar
  39   24   39 1
  40   25   40 1
  41   27   41 1
  42   28   31 ar
  43   28   42 1
  44   29   30 ar
  45   29   43 1
  46   30   44 1
  47   31   45 1
  48   32   46 1
  49   32   47 1
  50   32   48 1

#	End of record

