#	Name: ASD02150003
#	Creating user name:	WinNT
#	Creation time:	15. 06. 2019 20:18

#	Modifying user name:	WinNT
#	Modification time:	15. 06. 2019 20:18

#	Program:	/corina/corina34_cracker 3.40 0067  02.08.2006

@<TRIPOS>MOLECULE
ASD02150003
  37   38    0    0    0
SMALL
NO_CHARGES


@<TRIPOS>ATOM
   1 N1             0.0383     1.4051    -0.0096 N.am    
   2 C2             0.0891     0.0005    -0.0217 C.2     
   3 C3            -0.2736    -0.5209    -1.2107 C.2     
   4 C4            -0.6363     0.6092    -2.1475 C.3     
   5 C5            -0.4635     1.8801    -1.2983 C.3     
   6 C6             0.8623     2.6008    -1.4906 C.3     
   7 C7             1.1719     2.1161    -0.1056 C.2     
   8 C8             0.4788    -0.7805     1.0918 C.2     
   9 O9             0.8847    -0.2384     2.1033 O.2     
  10 O10            0.4005    -2.1270     1.0325 O.3     
  11 O11            2.1035     2.2998     0.6496 O.2     
  12 S12           -0.3171    -2.2369    -1.6081 S.3     
  13 C13           -2.0955    -2.4552    -1.8642 C.3     
  14 C14           -2.3979    -3.9352    -2.1076 C.3     
  15 N15           -3.8373    -4.1119    -2.3149 N.pl3   
  16 C16           -4.3469    -5.3612    -2.5526 C.2     
  17 N17           -3.5572    -6.3845    -2.5941 N.2     
  18 C18            1.7504     1.9894    -2.5761 C.3     
  19 C19            3.0501     2.7898    -2.6824 C.3     
  20 O20            2.0519     0.6342    -2.2376 O.3     
  21 H21           -1.3469     2.5174    -1.2569 H       
  22 H22            0.0399     0.6274    -3.0021 H       
  23 H23           -1.6696     0.5112    -2.4803 H       
  24 H24            0.7701     3.6839    -1.5704 H       
  25 H25            0.7592    -2.5764     1.8099 H       
  26 H26           -2.6344    -2.1149    -0.9800 H       
  27 H27           -2.4123    -1.8726    -2.7293 H       
  28 H28           -1.8590    -4.2755    -2.9919 H       
  29 H29           -2.0812    -4.5178    -1.2425 H       
  30 H30           -4.4296    -3.3443    -2.2838 H       
  31 H31           -5.4081    -5.4914    -2.7055 H       
  32 H32           -3.9180    -7.2690    -2.7624 H       
  33 H33            1.2273     2.0174    -3.5320 H       
  34 H34            3.6828     2.3542    -3.4557 H       
  35 H35            2.8201     3.8235    -2.9405 H       
  36 H36            3.5732     2.7617    -1.7265 H       
  37 H37            2.6129     0.1830    -2.8832 H       
@<TRIPOS>BOND
   1    1    2 1
   2    1    7 am
   3    1    5 1
   4    2    3 2
   5    2    8 1
   6    3    4 1
   7    3   12 1
   8    4    5 1
   9    4   22 1
  10    4   23 1
  11    5   21 1
  12    5    6 1
  13    6    7 1
  14    6   18 1
  15    6   24 1
  16    7   11 2
  17    8    9 2
  18    8   10 1
  19   10   25 1
  20   12   13 1
  21   13   14 1
  22   13   26 1
  23   13   27 1
  24   14   15 1
  25   14   28 1
  26   14   29 1
  27   15   16 1
  28   15   30 1
  29   16   17 2
  30   16   31 1
  31   17   32 1
  32   18   19 1
  33   18   20 1
  34   18   33 1
  35   19   34 1
  36   19   35 1
  37   19   36 1
  38   20   37 1

#	End of record

