#	Name: ASD01150289
#	Creating user name:	WinNT
#	Creation time:	15. 06. 2019 19:04

#	Modifying user name:	WinNT
#	Modification time:	15. 06. 2019 19:04

#	Program:	/corina/corina34_cracker 3.40 0067  02.08.2006

@<TRIPOS>MOLECULE
ASD01150289
  63   65    0    0    0
SMALL
NO_CHARGES


@<TRIPOS>ATOM
   1 C1            -0.0158     1.3123     0.0093 C.2     
   2 N2             0.0021    -0.0041     0.0020 N.2     
   3 C3            -1.2465    -0.4792     0.0114 C.2     
   4 C4            -2.1134     0.6065     0.0255 C.2     
   5 N5            -1.3045     1.7451     0.0298 N.pl3   
   6 N6             1.0958     2.1231     0.0030 N.3     
   7 C7             2.3292     1.3253    -0.0137 C.3     
   8 C8             1.0586     3.0586    -1.1289 C.3     
   9 C9            -1.7378     3.0772     0.0432 C.ar    
  10 N10           -1.6127    -1.8197     0.0070 N.am    
  11 C11           -3.5223     0.5668     0.0380 C.2     
  12 O12           -4.2300     1.7168     0.0505 O.3     
  13 O13           -4.1013    -0.5045     0.0375 O.2     
  14 C14           -5.6544     1.6019     0.0628 C.3     
  15 C15           -6.2786     2.9987     0.0759 C.3     
  16 C16           -6.1160     0.8487    -1.1864 C.3     
  17 C17           -6.0934     0.8354     1.3120 C.3     
  18 C18           -1.4634     3.8871     1.1373 C.ar    
  19 C19           -1.8921     5.2000     1.1476 C.ar    
  20 C20           -2.5938     5.7082     0.0699 C.ar    
  21 C21           -2.8685     4.9042    -1.0211 C.ar    
  22 C22           -2.4377     3.5921    -1.0399 C.ar    
  23 C23           -0.6644    -2.7773    -0.0075 C.2     
  24 C24           -1.0539    -4.2030    -0.0122 C.ar    
  25 O25            0.5112    -2.4684    -0.0167 O.2     
  26 O26           -7.7029     2.8838     0.0881 O.3     
  27 C27           -8.3872     4.1383     0.1010 C.3     
  28 C28           -0.0742    -5.1974    -0.0271 C.ar    
  29 C29           -0.4446    -6.5262    -0.0315 C.ar    
  30 C30           -1.7837    -6.8744    -0.0210 C.ar    
  31 C31           -2.7597    -5.8938    -0.0066 C.ar    
  32 C32           -2.4030    -4.5612     0.0041 C.ar    
  33 C33           -2.1808    -8.3281    -0.0258 C.3     
  34 H34            2.3465     0.7017    -0.9074 H       
  35 H35            3.1923     1.9909    -0.0183 H       
  36 H36            2.3639     0.6915     0.8724 H       
  37 H37            0.1696     3.6849    -1.0537 H       
  38 H38            1.9487     3.6875    -1.1100 H       
  39 H39            1.0299     2.4977    -2.0631 H       
  40 H40           -2.5508    -2.0662     0.0143 H       
  41 H41           -5.9497     3.5354     0.9658 H       
  42 H42           -5.9658     3.5448    -0.8141 H       
  43 H43           -5.6713    -0.1464    -1.1957 H       
  44 H44           -7.2024     0.7610    -1.1770 H       
  45 H45           -5.8032     1.3948    -2.0763 H       
  46 H46           -5.7645     1.3720     2.2019 H       
  47 H47           -7.1799     0.7477     1.3213 H       
  48 H48           -5.6487    -0.1597     1.3027 H       
  49 H49           -0.9158     3.4906     1.9795 H       
  50 H50           -1.6793     5.8303     1.9984 H       
  51 H51           -2.9282     6.7351     0.0804 H       
  52 H52           -3.4171     5.3039    -1.8612 H       
  53 H53           -2.6523     2.9648    -1.8924 H       
  54 H54           -8.1020     4.6986     0.9915 H       
  55 H55           -8.1181     4.7080    -0.7884 H       
  56 H56           -9.4633     3.9651     0.1098 H       
  57 H57            0.9714    -4.9269    -0.0356 H       
  58 H58            0.3123    -7.2965    -0.0434 H       
  59 H59           -3.8032    -6.1723     0.0011 H       
  60 H60           -3.1659    -3.7968     0.0157 H       
  61 H61           -2.2670    -8.6846     1.0006 H       
  62 H62           -3.1398    -8.4411    -0.5314 H       
  63 H63           -1.4229    -8.9101    -0.5502 H       
@<TRIPOS>BOND
   1    1    2 2
   2    1    6 1
   3    1    5 1
   4    2    3 1
   5    3    4 2
   6    3   10 1
   7    4    5 1
   8    4   11 1
   9    5    9 1
  10    6    7 1
  11    6    8 1
  12    7   34 1
  13    7   35 1
  14    7   36 1
  15    8   37 1
  16    8   38 1
  17    8   39 1
  18    9   18 ar
  19    9   22 ar
  20   10   23 am
  21   10   40 1
  22   11   12 1
  23   11   13 2
  24   12   14 1
  25   14   15 1
  26   14   16 1
  27   14   17 1
  28   15   26 1
  29   15   41 1
  30   15   42 1
  31   16   43 1
  32   16   44 1
  33   16   45 1
  34   17   46 1
  35   17   47 1
  36   17   48 1
  37   18   19 ar
  38   18   49 1
  39   19   20 ar
  40   19   50 1
  41   20   21 ar
  42   20   51 1
  43   21   22 ar
  44   21   52 1
  45   22   53 1
  46   23   24 1
  47   23   25 2
  48   24   28 ar
  49   24   32 ar
  50   26   27 1
  51   27   54 1
  52   27   55 1
  53   27   56 1
  54   28   29 ar
  55   28   57 1
  56   29   30 ar
  57   29   58 1
  58   30   31 ar
  59   30   33 1
  60   31   32 ar
  61   31   59 1
  62   32   60 1
  63   33   61 1
  64   33   62 1
  65   33   63 1

#	End of record

