#	Name: ASD01914458
#	Creating user name:	WinNT
#	Creation time:	15. 06. 2019 20:03

#	Modifying user name:	WinNT
#	Modification time:	15. 06. 2019 20:03

#	Program:	/corina/corina34_cracker 3.40 0067  02.08.2006

@<TRIPOS>MOLECULE
ASD01914458
  35   37    0    0    0
SMALL
NO_CHARGES


@<TRIPOS>ATOM
   1 N1            -0.0566     1.3034    -0.0090 N.pl3   
   2 C2             0.0534    -0.0513    -0.1587 C.2     
   3 C3             1.2062     1.7966     0.1487 C.2     
   4 N4             2.0560     0.7965     0.0991 N.2     
   5 C5             1.3782    -0.3507    -0.0887 C.2     
   6 C6             1.5588     3.2196     0.3431 C.ar    
   7 C7             0.6504     4.2200    -0.0057 C.ar    
   8 C8             0.9839     5.5455     0.1780 C.ar    
   9 C9             2.2189     5.8848     0.7075 C.ar    
  10 C10            3.1246     4.8952     1.0556 C.ar    
  11 C11            2.7987     3.5665     0.8813 C.ar    
  12 C12            1.9725    -1.7058    -0.2001 C.ar    
  13 C13            3.3530    -1.8730    -0.1108 C.ar    
  14 C14            1.1511    -2.8157    -0.3886 C.ar    
  15 C15            1.7080    -4.0741    -0.4911 C.ar    
  16 C16            3.0814    -4.2350    -0.4070 C.ar    
  17 C17            3.9013    -3.1350    -0.2144 C.ar    
  18 C18           -1.2980     2.0812    -0.0219 C.3     
  19 C19           -1.5785     2.5565    -1.4242 C.2     
  20 O20           -2.6717     3.2931    -1.6772 O.3     
  21 O21           -0.8193     2.2744    -2.3209 O.2     
  22 F22            3.6224    -5.4688    -0.5075 F       
  23 F23            2.5411     7.1848     0.8847 F       
  24 H24           -0.7570    -0.7501    -0.3041 H       
  25 H25           -0.3120     3.9566    -0.4191 H       
  26 H26            0.2817     6.3204    -0.0916 H       
  27 H27            4.0857     5.1650     1.4679 H       
  28 H28            3.5051     2.7961     1.1532 H       
  29 H29            3.9930    -1.0159     0.0390 H       
  30 H30            0.0803    -2.6912    -0.4539 H       
  31 H31            1.0722    -4.9348    -0.6369 H       
  32 H32            4.9715    -3.2649    -0.1494 H       
  33 H33           -2.1221     1.4558     0.3214 H       
  34 H34           -1.1947     2.9414     0.6394 H       
  35 H35           -2.8093     3.5748    -2.5919 H       
@<TRIPOS>BOND
   1    1    2 1
   2    1    3 1
   3    1   18 1
   4    2    5 2
   5    2   24 1
   6    3    4 2
   7    3    6 1
   8    4    5 1
   9    5   12 1
  10    6    7 ar
  11    6   11 ar
  12    7    8 ar
  13    7   25 1
  14    8    9 ar
  15    8   26 1
  16    9   10 ar
  17    9   23 1
  18   10   11 ar
  19   10   27 1
  20   11   28 1
  21   12   13 ar
  22   12   14 ar
  23   13   17 ar
  24   13   29 1
  25   14   15 ar
  26   14   30 1
  27   15   16 ar
  28   15   31 1
  29   16   17 ar
  30   16   22 1
  31   17   32 1
  32   18   19 1
  33   18   33 1
  34   18   34 1
  35   19   20 1
  36   19   21 2
  37   20   35 1

#	End of record

