#	Name: ASD03331659
#	Creating user name:	WinNT
#	Creation time:	15. 06. 2019 20:39

#	Modifying user name:	WinNT
#	Modification time:	15. 06. 2019 20:39

#	Program:	/corina/corina34_cracker 3.40 0067  02.08.2006

@<TRIPOS>MOLECULE
ASD03331659
  57   61    0    0    0
SMALL
NO_CHARGES


@<TRIPOS>ATOM
   1 C1            -0.3943     1.4849    -0.0534 C.3     
   2 N2            -0.3253     0.0161    -0.0846 N.am    
   3 C3            -0.0682    -0.6378    -1.3820 C.3     
   4 C4             1.0177     0.1555    -2.0666 C.2     
   5 N5             1.4623     1.3636    -1.6380 N.pl3   
   6 C6             0.9680     2.0644    -0.4506 C.3     
   7 C7             1.7217    -0.1650    -3.1820 C.2     
   8 N8             2.5822     0.8486    -3.4280 N.2     
   9 C9             2.4305     1.7712    -2.5058 C.2     
  10 C10            3.1848     3.0414    -2.4231 C.ar    
  11 C11            1.5754    -1.3953    -3.9798 C.2     
  12 O12            0.7615    -2.2382    -3.6538 O.2     
  13 C13            3.9181     3.4933    -3.5206 C.ar    
  14 N14            2.3435    -1.5864    -5.0707 N.am    
  15 C15           -0.4915    -0.7107     1.0381 C.2     
  16 O16           -0.5836    -0.1534     2.1151 O.2     
  17 C17            2.1980    -2.8095    -5.8638 C.3     
  18 C18            4.6190     4.6789    -3.4373 C.ar    
  19 C19            4.5959     5.4188    -2.2686 C.ar    
  20 C20            3.8710     4.9759    -1.1767 C.ar    
  21 C21            3.1609     3.7951    -1.2494 C.ar    
  22 C22           -0.5616    -2.1807     0.9607 C.2     
  23 C23            2.6609    -2.5454    -7.2980 C.3     
  24 C24            2.5090    -3.8228    -8.1263 C.3     
  25 C25            3.3623    -4.9339    -7.5114 C.3     
  26 C26            2.8994    -5.1980    -6.0773 C.3     
  27 C27            3.0513    -3.9206    -5.2489 C.3     
  28 C28           -0.8407    -2.9957    -0.2307 C.2     
  29 C29           -0.8011    -4.2729     0.1785 C.2     
  30 O30           -0.5271    -4.3055     1.4920 O.3     
  31 C31           -0.3752    -3.0699     1.9784 C.2     
  32 H32           -1.1544     1.8285    -0.7550 H       
  33 H33           -0.6510     1.8158     0.9530 H       
  34 H34            0.2648    -1.6634    -1.2222 H       
  35 H35           -0.9737    -0.6297    -1.9887 H       
  36 H36            0.8612     3.1262    -0.6725 H       
  37 H37            1.6731     1.9323     0.3701 H       
  38 H38            3.9374     2.9162    -4.4332 H       
  39 H39            2.9926    -0.9141    -5.3306 H       
  40 H40            1.1520    -3.1161    -5.8703 H       
  41 H41            5.1870     5.0298    -4.2862 H       
  42 H42            5.1464     6.3460    -2.2083 H       
  43 H43            3.8575     5.5577    -0.2669 H       
  44 H44            2.5953     3.4504    -0.3963 H       
  45 H45            2.0530    -1.7538    -7.7361 H       
  46 H46            3.7069    -2.2388    -7.2915 H       
  47 H47            1.4630    -4.1293    -8.1328 H       
  48 H48            2.8388    -3.6346    -9.1481 H       
  49 H49            3.2541    -5.8439    -8.1016 H       
  50 H50            4.4083    -4.6273    -7.5050 H       
  51 H51            1.8534    -5.5046    -6.0837 H       
  52 H52            3.5073    -5.9896    -5.6392 H       
  53 H53            4.0973    -3.6141    -5.2424 H       
  54 H54            2.7215    -4.1088    -4.2272 H       
  55 H55           -1.0378    -2.6391    -1.2309 H       
  56 H56           -0.9638    -5.1368    -0.4488 H       
  57 H57           -0.1497    -2.8180     3.0041 H       
@<TRIPOS>BOND
   1    1    2 1
   2    1    6 1
   3    1   32 1
   4    1   33 1
   5    2    3 1
   6    2   15 am
   7    3    4 1
   8    3   34 1
   9    3   35 1
  10    4    5 1
  11    4    7 2
  12    5    6 1
  13    5    9 1
  14    6   36 1
  15    6   37 1
  16    7    8 1
  17    7   11 1
  18    8    9 2
  19    9   10 1
  20   10   13 ar
  21   10   21 ar
  22   11   12 2
  23   11   14 am
  24   13   18 ar
  25   13   38 1
  26   14   17 1
  27   14   39 1
  28   15   16 2
  29   15   22 1
  30   17   23 1
  31   17   27 1
  32   17   40 1
  33   18   19 ar
  34   18   41 1
  35   19   20 ar
  36   19   42 1
  37   20   21 ar
  38   20   43 1
  39   21   44 1
  40   22   28 1
  41   22   31 2
  42   23   24 1
  43   23   45 1
  44   23   46 1
  45   24   25 1
  46   24   47 1
  47   24   48 1
  48   25   26 1
  49   25   49 1
  50   25   50 1
  51   26   27 1
  52   26   51 1
  53   26   52 1
  54   27   53 1
  55   27   54 1
  56   28   29 2
  57   28   55 1
  58   29   30 1
  59   29   56 1
  60   30   31 1
  61   31   57 1

#	End of record

