#	Name: ASD01914022
#	Creating user name:	WinNT
#	Creation time:	15. 06. 2019 20:02

#	Modifying user name:	WinNT
#	Modification time:	15. 06. 2019 20:02

#	Program:	/corina/corina34_cracker 3.40 0067  02.08.2006

@<TRIPOS>MOLECULE
ASD01914022
  38   40    0    0    0
SMALL
NO_CHARGES


@<TRIPOS>ATOM
   1 C1            -0.0174     1.3808    -0.0017 C.ar    
   2 C2             0.0010    -0.0017    -0.0164 C.ar    
   3 C3             1.2061    -0.6792    -0.0354 C.ar    
   4 C4             2.3795     1.4111    -0.0250 C.ar    
   5 C5             1.1689     2.0886    -0.0060 C.ar    
   6 O6             3.5479     2.1051    -0.0288 O.3     
   7 C7             4.7558     1.3419    -0.0487 C.3     
   8 C8             5.9394     2.2746    -0.0501 C.ar    
   9 N9             7.1599     1.7740    -0.0673 N.ar    
  10 C10            8.2278     2.5446    -0.0693 C.ar    
  11 C11            8.1002     3.9341    -0.0526 C.ar    
  12 C12            6.8173     4.4952    -0.0341 C.ar    
  13 C13            5.7283     3.6419    -0.0389 C.ar    
  14 C14            9.2988     4.7989    -0.0538 C.2     
  15 N15           10.5281     4.2467    -0.0712 N.am    
  16 O16            9.1758     6.0081    -0.0392 O.2     
  17 C17           11.6558     5.0593    -0.1815 C.ar    
  18 C18            2.3952     0.0240    -0.0397 C.ar    
  19 C19           12.9225     4.4943    -0.0907 C.ar    
  20 C20           14.0341     5.3111    -0.2022 C.ar    
  21 C21           13.8386     6.6725    -0.4017 C.ar    
  22 C22           12.5488     7.1657    -0.4822 C.ar    
  23 N23           11.5094     6.3601    -0.3770 N.ar    
  24 F24           14.8965     7.5050    -0.5154 F       
  25 H25           -0.9600     1.9077     0.0086 H       
  26 H26           -0.9275    -0.5533    -0.0127 H       
  27 H27            1.2179    -1.7591    -0.0464 H       
  28 H28            1.1540     3.1684     0.0051 H       
  29 H29            4.7970     0.7038     0.8341 H       
  30 H30            4.7798     0.7231    -0.9457 H       
  31 H31            9.2108     2.0974    -0.0836 H       
  32 H32            6.6815     5.5666    -0.0206 H       
  33 H33            4.7240     4.0388    -0.0251 H       
  34 H34           10.6284     3.2841    -0.0071 H       
  35 H35            3.3363    -0.5057    -0.0545 H       
  36 H36           13.0378     3.4318     0.0651 H       
  37 H37           15.0306     4.9001    -0.1353 H       
  38 H38           12.3907     8.2229    -0.6368 H       
@<TRIPOS>BOND
   1    1    2 ar
   2    1    5 ar
   3    1   25 1
   4    2    3 ar
   5    2   26 1
   6    3   18 ar
   7    3   27 1
   8    4    5 ar
   9    4    6 1
  10    4   18 ar
  11    5   28 1
  12    6    7 1
  13    7    8 1
  14    7   29 1
  15    7   30 1
  16    8    9 ar
  17    8   13 ar
  18    9   10 ar
  19   10   11 ar
  20   10   31 1
  21   11   12 ar
  22   11   14 1
  23   12   13 ar
  24   12   32 1
  25   13   33 1
  26   14   15 am
  27   14   16 2
  28   15   17 1
  29   15   34 1
  30   17   19 ar
  31   17   23 ar
  32   18   35 1
  33   19   20 ar
  34   19   36 1
  35   20   21 ar
  36   20   37 1
  37   21   22 ar
  38   21   24 1
  39   22   23 ar
  40   22   38 1

#	End of record

