#	Name: ASD01813682
#	Creating user name:	WinNT
#	Creation time:	15. 06. 2019 19:30

#	Modifying user name:	WinNT
#	Modification time:	15. 06. 2019 19:30

#	Program:	/corina/corina34_cracker 3.40 0067  02.08.2006

@<TRIPOS>MOLECULE
ASD01813682
  40   43    0    0    0
SMALL
NO_CHARGES


@<TRIPOS>ATOM
   1 C1             0.0981     1.4750     0.3524 C.ar    
   2 C2             0.0798     0.0887     0.3444 C.ar    
   3 C3             1.2499    -0.6315     0.2155 C.ar    
   4 C4             2.4679     0.0344     0.0910 C.ar    
   5 C5             2.4848     1.4396     0.0987 C.ar    
   6 C6             1.2926     2.1561     0.2304 C.ar    
   7 N7             3.6438    -0.6744    -0.0375 N.pl3   
   8 C8             4.8383    -0.0817    -0.1590 C.2     
   9 C9             4.9808     1.2912    -0.1642 C.2     
  10 C10            3.7792     2.1315    -0.0337 C.2     
  11 O11            3.8519     3.3480    -0.0333 O.2     
  12 C12            6.3098     1.9038    -0.2988 C.2     
  13 O13            6.4361     3.2459    -0.3025 O.3     
  14 O14            7.2953     1.2002    -0.4067 O.2     
  15 C15            3.5837    -2.1382    -0.0406 C.3     
  16 C16            3.4403    -2.6321    -1.4571 C.ar    
  17 C17            4.5541    -2.7797    -2.2622 C.ar    
  18 N18            4.4404    -3.2106    -3.5035 N.ar    
  19 C19            3.2708    -3.5175    -4.0276 C.ar    
  20 C20            2.1064    -3.3954    -3.2814 C.ar    
  21 C21            2.1909    -2.9488    -1.9658 C.ar    
  22 F22            1.2148    -1.9821     0.2104 F       
  23 F23            1.3086     3.5070     0.2375 F       
  24 N24            0.8637    -3.7222    -3.8434 N.pl3   
  25 C25           -0.3451    -3.6486    -3.2283 C.2     
  26 N26           -1.2644    -4.0338    -4.0710 N.2     
  27 C27           -0.6888    -4.3628    -5.2369 C.2     
  28 C28            0.6388    -4.1707    -5.1193 C.2     
  29 H29           -0.8266     2.0243     0.4500 H       
  30 H30           -0.8607    -0.4335     0.4405 H       
  31 H31            5.7196    -0.6984    -0.2558 H       
  32 H32            7.3304     3.6025    -0.3934 H       
  33 H33            4.4990    -2.5404     0.3935 H       
  34 H34            2.7273    -2.4679     0.5476 H       
  35 H35            5.5308    -2.5385    -1.8695 H       
  36 H36            3.2175    -3.8673    -5.0480 H       
  37 H37            1.3036    -2.8431    -1.3593 H       
  38 H38           -0.5168    -3.3258    -2.2121 H       
  39 H39           -1.2019    -4.7164    -6.1190 H       
  40 H40            1.3842    -4.3435    -5.8815 H       
@<TRIPOS>BOND
   1    1    2 ar
   2    1    6 ar
   3    1   29 1
   4    2    3 ar
   5    2   30 1
   6    3   22 1
   7    3    4 ar
   8    4    5 ar
   9    4    7 1
  10    5    6 ar
  11    5   10 1
  12    6   23 1
  13    7    8 1
  14    7   15 1
  15    8    9 2
  16    8   31 1
  17    9   10 1
  18    9   12 1
  19   10   11 2
  20   12   13 1
  21   12   14 2
  22   13   32 1
  23   15   16 1
  24   15   33 1
  25   15   34 1
  26   16   17 ar
  27   16   21 ar
  28   17   18 ar
  29   17   35 1
  30   18   19 ar
  31   19   20 ar
  32   19   36 1
  33   20   21 ar
  34   20   24 1
  35   21   37 1
  36   24   25 1
  37   24   28 1
  38   25   26 2
  39   25   38 1
  40   26   27 1
  41   27   28 2
  42   27   39 1
  43   28   40 1

#	End of record

