#	Name: ASD01880998
#	Creating user name:	WinNT
#	Creation time:	15. 06. 2019 19:41

#	Modifying user name:	WinNT
#	Modification time:	15. 06. 2019 19:41

#	Program:	/corina/corina34_cracker 3.40 0067  02.08.2006

@<TRIPOS>MOLECULE
ASD01880998
  36   38    0    0    0
SMALL
NO_CHARGES


@<TRIPOS>ATOM
   1 N1            -0.0158     1.3114     0.0093 N.ar    
   2 C2             0.0021    -0.0041     0.0020 C.ar    
   3 N3             1.1306    -0.6865    -0.0124 N.ar    
   4 C4             2.3017    -0.0691    -0.0203 C.ar    
   5 C5             2.3343     1.3187    -0.0131 C.ar    
   6 C6             1.1203     2.0081     0.0021 C.ar    
   7 C7             3.6455     2.0615    -0.0212 C.3     
   8 O8             4.0476     2.3035    -1.3709 O.3     
   9 C9             5.2166     2.9676    -1.5559 C.ar    
  10 C10            5.6668     3.2362    -2.8453 C.ar    
  11 C11            6.8488     3.9082    -3.0321 C.ar    
  12 C12            7.6069     4.3265    -1.9331 C.ar    
  13 C13            7.1504     4.0543    -0.6391 C.ar    
  14 C14            5.9593     3.3833    -0.4582 C.ar    
  15 C15            7.6030     4.3491    -4.2619 C.3     
  16 N16            8.8106     5.0290    -3.7796 N.am    
  17 C17            8.8084     5.0134    -2.4357 C.2     
  18 O18            9.6754     5.4982    -1.7343 O.2     
  19 Cl19           3.7774    -0.9833    -0.0387 Cl      
  20 Cl20           8.0783     4.5654     0.7361 Cl      
  21 C21            9.4970     7.0895    -4.9042 C.3     
  22 C22            9.8478     5.6268    -4.6241 C.3     
  23 C23            1.0963     3.4399     0.0096 C.1     
  24 N24            1.0772     4.5757     0.0155 N.1     
  25 H25           -0.9350    -0.5410     0.0084 H       
  26 H26            3.5278     3.0121     0.4988 H       
  27 H27            4.4050     1.4634     0.4825 H       
  28 H28            5.0867     2.9158    -3.6980 H       
  29 H29            5.6066     3.1734     0.5407 H       
  30 H30            7.8760     3.4829    -4.8646 H       
  31 H31            6.9943     5.0374    -4.8481 H       
  32 H32           10.2687     7.5343    -5.5325 H       
  33 H33            8.5366     7.1410    -5.4170 H       
  34 H34            9.4359     7.6352    -3.9627 H       
  35 H35           10.8083     5.5753    -4.1112 H       
  36 H36            9.9090     5.0811    -5.5656 H       
@<TRIPOS>BOND
   1    1    2 ar
   2    1    6 ar
   3    2    3 ar
   4    2   25 1
   5    3    4 ar
   6    4    5 ar
   7    4   19 1
   8    5    6 ar
   9    5    7 1
  10    6   23 1
  11    7    8 1
  12    7   26 1
  13    7   27 1
  14    8    9 1
  15    9   10 ar
  16    9   14 ar
  17   10   11 ar
  18   10   28 1
  19   11   12 ar
  20   11   15 1
  21   12   13 ar
  22   12   17 1
  23   13   14 ar
  24   13   20 1
  25   14   29 1
  26   15   16 1
  27   15   30 1
  28   15   31 1
  29   16   17 am
  30   16   22 1
  31   17   18 2
  32   21   22 1
  33   21   32 1
  34   21   33 1
  35   21   34 1
  36   22   35 1
  37   22   36 1
  38   23   24 3

#	End of record

