#	Name: ASD02500124
#	Creating user name:	WinNT
#	Creation time:	15. 06. 2019 20:22

#	Modifying user name:	WinNT
#	Modification time:	15. 06. 2019 20:22

#	Program:	/corina/corina34_cracker 3.40 0067  02.08.2006

@<TRIPOS>MOLECULE
ASD02500124
  58   62    0    0    0
SMALL
NO_CHARGES


@<TRIPOS>ATOM
   1 N1            -4.2031     5.3534    -2.2025 N.ar    
   2 C2            -5.4509     5.7444    -2.2934 C.ar    
   3 C3            -6.3623     5.5341    -1.2606 C.ar    
   4 C4            -5.9624     4.9051    -0.1162 C.ar    
   5 C5            -4.6217     4.4861    -0.0224 C.ar    
   6 C6            -4.1380     3.8337     1.1228 C.ar    
   7 C7            -2.8342     3.4442     1.1751 C.ar    
   8 C8            -1.9728     3.6850     0.1070 C.ar    
   9 C9            -2.4082     4.3149    -1.0182 C.ar    
  10 C10           -3.7473     4.7321    -1.1101 C.ar    
  11 S11           -1.2972     4.6072    -2.3542 S.o2    
  12 O12           -1.4106     5.9867    -2.6758 O.2     
  13 O13           -0.0679     3.9912    -1.9959 O.2     
  14 N14           -1.8743     3.7730    -3.6631 N.am    
  15 C15           -2.0165     2.3913    -3.5994 C.ar    
  16 C16           -3.1543     1.7851    -4.1249 C.ar    
  17 C17           -3.2980     0.4179    -4.0634 C.ar    
  18 C18           -2.3000    -0.3624    -3.4723 C.ar    
  19 C19           -1.1587     0.2493    -2.9455 C.ar    
  20 C20           -1.0182     1.6164    -3.0152 C.ar    
  21 C21           -2.4511    -1.8283    -3.4042 C.2     
  22 O22           -1.5109    -2.5497    -3.6764 O.2     
  23 N23           -3.6313    -2.3679    -3.0403 N.am    
  24 C24           -3.7580    -3.8168    -2.8295 C.3     
  25 C25           -4.3112    -4.0604    -1.4199 C.3     
  26 N26           -5.4943    -3.2104    -1.2264 N.am    
  27 C27           -5.3676    -1.7615    -1.4372 C.3     
  28 C28           -4.8131    -1.5172    -2.8413 C.3     
  29 C29           -6.6745    -3.7500    -0.8625 C.2     
  30 O30           -6.8120    -4.9572    -0.8482 O.2     
  31 C31           -7.8043    -2.8712    -0.4799 C.ar    
  32 C32           -9.0726    -3.4127    -0.2735 C.ar    
  33 N33           -7.6105    -1.5643    -0.3269 N.ar    
  34 N34          -10.0765    -2.6252     0.0679 N.ar    
  35 C35           -9.8796    -1.3268     0.2137 C.ar    
  36 C36           -8.6178    -0.7857     0.0140 C.ar    
  37 H37           -5.7813     6.2432    -3.1925 H       
  38 H38           -7.3839     5.8686    -1.3648 H       
  39 H39           -6.6554     4.7342     0.6943 H       
  40 H40           -4.7961     3.6422     1.9575 H       
  41 H41           -2.4630     2.9424     2.0565 H       
  42 H42           -0.9428     3.3669     0.1731 H       
  43 H43           -2.1130     4.2482    -4.4743 H       
  44 H44           -3.9251     2.3885    -4.5811 H       
  45 H45           -4.1810    -0.0517    -4.4709 H       
  46 H46           -0.3861    -0.3509    -2.4879 H       
  47 H47           -0.1346     2.0892    -2.6126 H       
  48 H48           -4.4415    -4.2355    -3.5681 H       
  49 H49           -2.7794    -4.2873    -2.9248 H       
  50 H50           -4.5921    -5.1082    -1.3132 H       
  51 H51           -3.5525    -3.8054    -0.6801 H       
  52 H52           -6.3462    -1.2909    -1.3418 H       
  53 H53           -4.6841    -1.3427    -0.6985 H       
  54 H54           -4.5311    -0.4693    -2.9444 H       
  55 H55           -5.5734    -1.7684    -3.5808 H       
  56 H56           -9.2338    -4.4739    -0.3930 H       
  57 H57          -10.7024    -0.6854     0.4929 H       
  58 H58           -8.4606     0.2755     0.1386 H       
@<TRIPOS>BOND
   1    1    2 ar
   2    1   10 ar
   3    2    3 ar
   4    2   37 1
   5    3    4 ar
   6    3   38 1
   7    4    5 ar
   8    4   39 1
   9    5    6 ar
  10    5   10 ar
  11    6    7 ar
  12    6   40 1
  13    7    8 ar
  14    7   41 1
  15    8    9 ar
  16    8   42 1
  17    9   10 ar
  18    9   11 1
  19   11   12 2
  20   11   13 2
  21   11   14 am
  22   14   15 1
  23   14   43 1
  24   15   16 ar
  25   15   20 ar
  26   16   17 ar
  27   16   44 1
  28   17   18 ar
  29   17   45 1
  30   18   19 ar
  31   18   21 1
  32   19   20 ar
  33   19   46 1
  34   20   47 1
  35   21   22 2
  36   21   23 am
  37   23   24 1
  38   23   28 1
  39   24   25 1
  40   24   48 1
  41   24   49 1
  42   25   26 1
  43   25   50 1
  44   25   51 1
  45   26   27 1
  46   26   29 am
  47   27   28 1
  48   27   52 1
  49   27   53 1
  50   28   54 1
  51   28   55 1
  52   29   30 2
  53   29   31 1
  54   31   32 ar
  55   31   33 ar
  56   32   34 ar
  57   32   56 1
  58   33   36 ar
  59   34   35 ar
  60   35   36 ar
  61   35   57 1
  62   36   58 1

#	End of record

