#	Name: ASD01580001
#	Creating user name:	WinNT
#	Creation time:	15. 06. 2019 19:22

#	Modifying user name:	WinNT
#	Modification time:	15. 06. 2019 19:22

#	Program:	/corina/corina34_cracker 3.40 0067  02.08.2006

@<TRIPOS>MOLECULE
ASD01580001
  37   39    0    0    0
SMALL
NO_CHARGES


@<TRIPOS>ATOM
   1 C1            -0.0185     1.5025     0.0132 C.2     
   2 C2             0.0017    -0.0043     0.0093 C.3     
   3 C3            -0.2296    -0.5212     1.4306 C.3     
   4 O4             1.0237     2.1230     0.0057 O.2     
   5 N5            -1.1946     2.1607     0.0195 N.am    
   6 C6            -2.1791     4.2784    -0.5340 C.ar    
   7 C7            -1.2153     3.5547     0.1327 C.ar    
   8 C8            -0.2568     4.1997     0.9227 C.ar    
   9 C9            -0.2533     5.5530     1.0512 C.ar    
  10 C10           -1.2225     6.3226     0.3847 C.ar    
  11 C11           -1.2434     7.7232     0.4998 C.ar    
  12 C12           -2.1954     8.4394    -0.1582 C.ar    
  13 C13           -3.1536     7.8053    -0.9471 C.ar    
  14 C14           -3.1649     6.4512    -1.0823 C.ar    
  15 C15           -2.1972     5.6775    -0.4177 C.ar    
  16 C16           -1.1224    -4.0647     1.3454 C.2     
  17 N17            0.1790    -4.1386     1.4096 N.2     
  18 C18            0.6909    -2.8995     1.4492 C.2     
  19 C19           -0.3320    -2.0245     1.4080 C.2     
  20 N20           -1.4825    -2.7632     1.3422 N.pl3   
  21 N21            1.3054    -0.4753    -0.4769 N.3     
  22 H22           -0.7863    -0.3765    -0.6454 H       
  23 H23            0.6046    -0.2233     2.0658 H       
  24 H24           -1.1546    -0.0999     1.8244 H       
  25 H25           -2.0267     1.6677    -0.0546 H       
  26 H26           -2.9127     3.7738    -1.1452 H       
  27 H27            0.4904     3.6140     1.4377 H       
  28 H28            0.4927     6.0361     1.6647 H       
  29 H29           -0.5077     8.2286     1.1077 H       
  30 H30           -2.2089     9.5155    -0.0673 H       
  31 H31           -3.8983     8.3972    -1.4584 H       
  32 H32           -3.9136     5.9733    -1.6966 H       
  33 H33           -1.7990    -4.9051     1.2981 H       
  34 H34            1.7397    -2.6476     1.5048 H       
  35 H35           -2.3875    -2.4165     1.3009 H       
  36 H36            2.0531    -0.1433     0.1138 H       
  37 H37            1.3221    -1.4815    -0.5501 H       
@<TRIPOS>BOND
   1    1    2 1
   2    1    4 2
   3    1    5 am
   4    2    3 1
   5    2   21 1
   6    2   22 1
   7    3   19 1
   8    3   23 1
   9    3   24 1
  10    5    7 1
  11    5   25 1
  12    6    7 ar
  13    6   15 ar
  14    6   26 1
  15    7    8 ar
  16    8    9 ar
  17    8   27 1
  18    9   10 ar
  19    9   28 1
  20   10   11 ar
  21   10   15 ar
  22   11   12 ar
  23   11   29 1
  24   12   13 ar
  25   12   30 1
  26   13   14 ar
  27   13   31 1
  28   14   15 ar
  29   14   32 1
  30   16   17 2
  31   16   20 1
  32   16   33 1
  33   17   18 1
  34   18   19 2
  35   18   34 1
  36   19   20 1
  37   20   35 1
  38   21   36 1
  39   21   37 1

#	End of record

