#	Name: ASD03331768
#	Creating user name:	WinNT
#	Creation time:	15. 06. 2019 20:39

#	Modifying user name:	WinNT
#	Modification time:	15. 06. 2019 20:39

#	Program:	/corina/corina34_cracker 3.40 0067  02.08.2006

@<TRIPOS>MOLECULE
ASD03331768
 213  215    0    0    0
SMALL
NO_CHARGES


@<TRIPOS>ATOM
   1 N1             3.9464    -1.3271    12.8200 N.pl3   
   2 C2             2.9975    -1.4609    11.8341 C.2     
   3 N3             3.3465    -1.3925    10.5801 N.2     
   4 N4             1.6806    -1.6669    12.1709 N.pl3   
   5 C5             0.6695    -1.8095    11.1204 C.3     
   6 C6            -0.7032    -2.0276    11.7599 C.3     
   7 C7            -1.7591    -2.1765    10.6628 C.3     
   8 C8            -3.1318    -2.3946    11.3023 C.3     
   9 C9            -4.1509    -2.6634    10.2251 C.2     
  10 N10           -4.2470    -3.8922     9.6799 N.am    
  11 O11           -4.8845    -1.7740     9.8489 O.2     
  12 N12           -3.5186    -1.1929    12.0534 N.3     
  13 C13           -6.4014    -5.6612    10.2499 C.3     
  14 C14           -6.5829    -4.4944     9.2770 C.3     
  15 C15           -7.1085    -3.2744    10.0361 C.3     
  16 C16           -5.2377    -4.1535     8.6328 C.3     
  17 C17           -4.7788    -5.3119     7.7850 C.2     
  18 O18           -3.7278    -5.8647     8.0312 O.2     
  19 N19           -5.5365    -5.7335     6.7531 N.am    
  20 C20           -2.8631    -4.3757     5.9622 C.3     
  21 C21           -2.8955    -5.8002     5.4715 C.2     
  22 C22           -1.8358    -6.5602     5.5963 C.2     
  23 C23           -4.1470    -6.3504     4.8374 C.3     
  24 C24           -5.0904    -6.8595     5.9290 C.3     
  25 C25           -6.2857    -7.5202     5.2918 C.2     
  26 O26           -7.3278    -6.9179     5.1941 O.2     
  27 C27           -6.1805    -8.9325     4.7766 C.3     
  28 C28           -7.5702    -9.5929     4.7614 C.3     
  29 C29           -7.8650    -9.9655     3.2937 C.3     
  30 C30           -6.4645   -10.0781     2.6418 C.3     
  31 C31           -5.6792    -8.9268     3.3177 C.3     
  32 C32           -7.5617   -10.8333     5.6172 C.2     
  33 N33           -8.6823   -11.5709     5.7459 N.am    
  34 O34           -6.5464   -11.1678     6.1901 O.2     
  35 C35           -8.6740   -12.7768     6.5778 C.3     
  36 C36          -10.0727   -13.0643     7.0595 C.2     
  37 C37           -8.1648   -13.9612     5.7540 C.3     
  38 C38           -9.0090   -14.1009     4.4857 C.3     
  39 C39           -6.7028   -13.7244     5.3700 C.3     
  40 O40          -10.9865   -12.3339     6.7395 O.2     
  41 N41          -10.3082   -14.1331     7.8461 N.am    
  42 C42          -11.6441   -14.3498     8.4069 C.3     
  43 C43          -11.7765   -13.5854     9.6989 C.2     
  44 N44          -12.9284   -13.6360    10.3968 N.am    
  45 O45          -10.8465   -12.9248    10.1107 O.2     
  46 C46          -11.8492   -15.8423     8.6740 C.3     
  47 C47          -11.8040   -16.5967     7.3703 C.2     
  48 N48          -12.0427   -17.9231     7.3506 N.am    
  49 O49          -11.5528   -16.0104     6.3387 O.2     
  50 C50          -13.0571   -12.8930    11.6528 C.3     
  51 C51          -12.4950   -13.7324    12.8019 C.3     
  52 C52          -11.0138   -13.9271    12.6039 C.ar    
  53 C53          -10.1197   -13.0179    13.1375 C.ar    
  54 C54           -8.7610   -13.1966    12.9558 C.ar    
  55 C55           -8.2964   -14.2847    12.2410 C.ar    
  56 C56           -9.1905   -15.1944    11.7082 C.ar    
  57 C57          -10.5490   -15.0181    11.8935 C.ar    
  58 C58          -14.5111   -12.5946    11.9132 C.2     
  59 N59          -14.8719   -11.9149    13.0197 N.am    
  60 O60          -15.3566   -12.9660    11.1271 O.2     
  61 C61          -16.2854   -11.6249    13.2729 C.3     
  62 C62          -16.3985   -10.4056    14.1513 C.2     
  63 C63          -17.1258    -9.3759    13.7606 C.2     
  64 N64          -15.7373   -10.3656    15.3724 N.pl3   
  65 C65          -15.7564    -9.1407    16.1758 C.3     
  66 C66          -16.9338   -12.8204    13.9737 C.3     
  67 C67          -16.9304   -14.0267    13.0326 C.3     
  68 C68          -17.5788   -15.2222    13.7334 C.3     
  69 C69          -17.5754   -16.4285    12.7923 C.3     
  70 N70          -18.1980   -17.5763    13.4652 N.3     
  71 C71          -14.6803    -8.1798    15.6663 C.3     
  72 C72          -14.7996    -6.8438    16.4024 C.3     
  73 C73          -13.6182    -5.9472    16.0266 C.3     
  74 C74          -16.1077    -6.1572    16.0044 C.3     
  75 C75          -15.4831    -9.4817    17.6181 C.2     
  76 O76          -15.0322   -10.5693    17.9091 O.2     
  77 N77          -15.7398    -8.5780    18.5845 N.am    
  78 C78          -15.5575    -8.9395    19.9925 C.3     
  79 C79          -14.0946    -8.7288    20.3878 C.3     
  80 C80          -13.2094    -9.6990    19.6030 C.3     
  81 C81          -11.7384    -9.4049    19.9043 C.3     
  82 C82          -13.5371   -11.1355    20.0149 C.3     
  83 C83          -16.4402    -8.0718    20.8522 C.2     
  84 O84          -17.1515    -7.2340    20.3393 O.2     
  85 N85          -16.4391    -8.2269    22.1910 N.am    
  86 C86          -17.2972    -7.3834    23.0268 C.3     
  87 C87          -16.5806    -6.0651    23.3260 C.3     
  88 O88          -15.4188    -6.3233    24.1168 O.3     
  89 C89          -17.5969    -8.0970    24.3198 C.2     
  90 O90          -17.1388    -9.2014    24.5232 O.2     
  91 N91          -18.3739    -7.5079    25.2502 N.am    
  92 C92          -18.6652    -8.2017    26.5072 C.3     
  93 C93          -19.8441    -9.1201    26.3126 C.2     
  94 O94          -20.2928    -9.8625    27.3370 O.3     
  95 O95          -20.3854    -9.1881    25.2346 O.2     
  96 C96          -18.9928    -7.1743    27.5927 C.3     
  97 C97          -17.7735    -6.3347    27.8740 C.2     
  98 N98          -16.5971    -6.7900    28.2085 N.2     
  99 C99          -15.7562    -5.7592    28.3800 C.2     
 100 C100         -16.4373    -4.6219    28.1428 C.2     
 101 N101         -17.7156    -4.9867    27.8161 N.pl3   
 102 H102           4.8755    -1.1817    12.5823 H       
 103 H103           3.6861    -1.3740    13.7532 H       
 104 H104           2.6770    -1.4869     9.8845 H       
 105 H105           1.4209    -1.7178    13.1041 H       
 106 H106           0.6474    -0.9052    10.5122 H       
 107 H107           0.9173    -2.6644    10.4913 H       
 108 H108          -0.6811    -2.9319    12.3681 H       
 109 H109          -0.9509    -1.1726    12.3890 H       
 110 H110          -1.7812    -1.2722    10.0546 H       
 111 H111          -1.5114    -3.0315    10.0337 H       
 112 H112          -3.0857    -3.2473    11.9798 H       
 113 H113          -3.6603    -4.6036     9.9809 H       
 114 H114          -3.5684    -0.3879    11.4471 H       
 115 H115          -4.3920    -1.3350    12.5382 H       
 116 H116          -7.3598    -5.9040    10.7089 H       
 117 H117          -6.0269    -6.5303     9.7091 H       
 118 H118          -5.6882    -5.3804    11.0249 H       
 119 H119          -7.2961    -4.7751     8.5020 H       
 120 H120          -7.2379    -2.4432     9.3430 H       
 121 H121          -8.0669    -3.5172    10.4950 H       
 122 H122          -6.3953    -2.9937    10.8111 H       
 123 H123          -5.3482    -3.2673     8.0079 H       
 124 H124          -6.3771    -5.2913     6.5562 H       
 125 H125          -2.5243    -3.7221     5.1584 H       
 126 H126          -3.8631    -4.0768     6.2765 H       
 127 H127          -2.1784    -4.2978     6.8068 H       
 128 H128          -0.9390    -6.1658     6.0508 H       
 129 H129          -1.8590    -7.5810     5.2446 H       
 130 H130          -4.6416    -5.5638     4.2675 H       
 131 H131          -3.8854    -7.1722     4.1709 H       
 132 H132          -4.5662    -7.5822     6.5542 H       
 133 H133          -5.5001    -9.5087     5.4037 H       
 134 H134          -8.3207    -8.8919     5.1266 H       
 135 H135          -8.3885   -10.9200     3.2402 H       
 136 H136          -8.4486    -9.1816     2.8109 H       
 137 H137          -6.0089   -11.0419     2.8691 H       
 138 H138          -6.5262    -9.9233     1.5646 H       
 139 H139          -5.9098    -7.9752     2.8388 H       
 140 H140          -4.6077    -9.1233     3.2817 H       
 141 H141          -9.4943   -11.3034     5.2877 H       
 142 H142          -8.0190   -12.6221     7.4352 H       
 143 H143          -8.2420   -14.8743     6.3443 H       
 144 H144          -8.9317   -13.1878     3.8954 H       
 145 H145          -8.6462   -14.9447     3.8988 H       
 146 H146         -10.0505   -14.2696     4.7593 H       
 147 H147          -6.1013   -13.6249     6.2736 H       
 148 H148          -6.3400   -14.5682     4.7832 H       
 149 H149          -6.6255   -12.8113     4.7798 H       
 150 H150          -9.5931   -14.7589     8.0408 H       
 151 H151         -12.3962   -14.0006     7.6995 H       
 152 H152         -13.6722   -14.1644    10.0675 H       
 153 H153         -11.0595   -16.2056     9.3316 H       
 154 H154         -12.8177   -15.9965     9.1497 H       
 155 H155         -12.2435   -18.3920     8.1756 H       
 156 H156         -12.0136   -18.4087     6.5114 H       
 157 H157         -12.5016   -11.9579    11.5804 H       
 158 H158         -12.6707   -13.2186    13.7470 H       
 159 H159         -12.9901   -14.7033    12.8186 H       
 160 H160         -10.4826   -12.1678    13.6960 H       
 161 H161          -8.0625   -12.4858    13.3721 H       
 162 H162          -7.2350   -14.4239    12.0985 H       
 163 H163          -8.8276   -16.0444    11.1494 H       
 164 H164         -11.2475   -15.7289    11.4772 H       
 165 H165         -14.1957   -11.6178    13.6485 H       
 166 H166         -16.7934   -11.4392    12.3265 H       
 167 H167         -17.1349    -8.4681    14.3457 H       
 168 H168         -17.7118    -9.4409    12.8557 H       
 169 H169         -15.2631   -11.1486    15.6930 H       
 170 H170         -16.7347    -8.6673    16.0935 H       
 171 H171         -16.3714   -13.0616    14.8757 H       
 172 H172         -17.9607   -12.5714    14.2416 H       
 173 H173         -17.4929   -13.7854    12.1306 H       
 174 H174         -15.9036   -14.2756    12.7647 H       
 175 H175         -17.0164   -15.4635    14.6354 H       
 176 H176         -18.6056   -14.9732    14.0013 H       
 177 H177         -18.1379   -16.1872    11.8903 H       
 178 H178         -16.5486   -16.6774    12.5244 H       
 179 H179         -19.1289   -17.3490    13.7810 H       
 180 H180         -18.2078   -18.3863    12.8637 H       
 181 H181         -13.6948    -8.6083    15.8485 H       
 182 H182         -14.8143    -8.0184    14.5966 H       
 183 H183         -14.7943    -7.0199    17.4781 H       
 184 H184         -13.6235    -5.7710    14.9510 H       
 185 H185         -13.7032    -4.9954    16.5511 H       
 186 H186         -12.6863    -6.4363    16.3101 H       
 187 H187         -16.9463    -6.8183    16.2234 H       
 188 H188         -16.2182    -5.2311    16.5685 H       
 189 H189         -16.0906    -5.9332    14.9379 H       
 190 H190         -16.0453    -7.6883    18.3478 H       
 191 H191         -15.8257    -9.9861    20.1365 H       
 192 H192         -13.8008    -7.7040    20.1606 H       
 193 H193         -13.9768    -8.9122    21.4558 H       
 194 H194         -13.3932    -9.5762    18.5356 H       
 195 H195         -11.5547    -9.5277    20.9717 H       
 196 H196         -11.1078   -10.0961    19.3452 H       
 197 H197         -11.5050    -8.3815    19.6108 H       
 198 H198         -13.3533   -11.2583    21.0823 H       
 199 H199         -14.5850   -11.3450    19.8002 H       
 200 H200         -12.9064   -11.8267    19.4558 H       
 201 H201         -15.8702    -8.8970    22.6012 H       
 202 H202         -18.2294    -7.1789    22.5002 H       
 203 H203         -16.2850    -5.5916    22.3898 H       
 204 H204         -17.2520    -5.4025    23.8722 H       
 205 H205         -14.9141    -5.5306    24.3449 H       
 206 H206         -18.7403    -6.6247    25.0875 H       
 207 H207         -17.7960    -8.7854    26.8100 H       
 208 H208         -21.0515   -10.4364    27.1639 H       
 209 H209         -19.8053    -6.5324    27.2521 H       
 210 H210         -19.2957    -7.6916    28.5030 H       
 211 H211         -14.7154    -5.8290    28.6597 H       
 212 H212         -16.0486    -3.6157    28.1960 H       
 213 H213         -18.4452    -4.3884    27.5913 H       
@<TRIPOS>BOND
   1    1    2 1
   2    1  102 1
   3    1  103 1
   4    2    3 2
   5    2    4 1
   6    3  104 1
   7    4    5 1
   8    4  105 1
   9    5    6 1
  10    5  106 1
  11    5  107 1
  12    6    7 1
  13    6  108 1
  14    6  109 1
  15    7    8 1
  16    7  110 1
  17    7  111 1
  18    8    9 1
  19    8   12 1
  20    8  112 1
  21    9   10 am
  22    9   11 2
  23   10   16 1
  24   10  113 1
  25   12  114 1
  26   12  115 1
  27   13   14 1
  28   13  116 1
  29   13  117 1
  30   13  118 1
  31   14   15 1
  32   14   16 1
  33   14  119 1
  34   15  120 1
  35   15  121 1
  36   15  122 1
  37   16   17 1
  38   16  123 1
  39   17   18 2
  40   17   19 am
  41   19   24 1
  42   19  124 1
  43   20   21 1
  44   20  125 1
  45   20  126 1
  46   20  127 1
  47   21   22 2
  48   21   23 1
  49   22  128 1
  50   22  129 1
  51   23   24 1
  52   23  130 1
  53   23  131 1
  54   24   25 1
  55   24  132 1
  56   25   26 2
  57   25   27 1
  58   27   28 1
  59   27   31 1
  60   27  133 1
  61   28   29 1
  62   28   32 1
  63   28  134 1
  64   29   30 1
  65   29  135 1
  66   29  136 1
  67   30   31 1
  68   30  137 1
  69   30  138 1
  70   31  139 1
  71   31  140 1
  72   32   33 am
  73   32   34 2
  74   33   35 1
  75   33  141 1
  76   35   36 1
  77   35   37 1
  78   35  142 1
  79   36   40 2
  80   36   41 am
  81   37   38 1
  82   37   39 1
  83   37  143 1
  84   38  144 1
  85   38  145 1
  86   38  146 1
  87   39  147 1
  88   39  148 1
  89   39  149 1
  90   41   42 1
  91   41  150 1
  92   42   43 1
  93   42   46 1
  94   42  151 1
  95   43   44 am
  96   43   45 2
  97   44   50 1
  98   44  152 1
  99   46   47 1
 100   46  153 1
 101   46  154 1
 102   47   48 am
 103   47   49 2
 104   48  155 1
 105   48  156 1
 106   50   51 1
 107   50   58 1
 108   50  157 1
 109   51   52 1
 110   51  158 1
 111   51  159 1
 112   52   53 ar
 113   52   57 ar
 114   53   54 ar
 115   53  160 1
 116   54   55 ar
 117   54  161 1
 118   55   56 ar
 119   55  162 1
 120   56   57 ar
 121   56  163 1
 122   57  164 1
 123   58   59 am
 124   58   60 2
 125   59   61 1
 126   59  165 1
 127   61   62 1
 128   61   66 1
 129   61  166 1
 130   62   63 2
 131   62   64 1
 132   63  167 1
 133   63  168 1
 134   64   65 1
 135   64  169 1
 136   65   71 1
 137   65   75 1
 138   65  170 1
 139   66   67 1
 140   66  171 1
 141   66  172 1
 142   67   68 1
 143   67  173 1
 144   67  174 1
 145   68   69 1
 146   68  175 1
 147   68  176 1
 148   69   70 1
 149   69  177 1
 150   69  178 1
 151   70  179 1
 152   70  180 1
 153   71   72 1
 154   71  181 1
 155   71  182 1
 156   72   73 1
 157   72   74 1
 158   72  183 1
 159   73  184 1
 160   73  185 1
 161   73  186 1
 162   74  187 1
 163   74  188 1
 164   74  189 1
 165   75   76 2
 166   75   77 am
 167   77   78 1
 168   77  190 1
 169   78   79 1
 170   78   83 1
 171   78  191 1
 172   79   80 1
 173   79  192 1
 174   79  193 1
 175   80   81 1
 176   80   82 1
 177   80  194 1
 178   81  195 1
 179   81  196 1
 180   81  197 1
 181   82  198 1
 182   82  199 1
 183   82  200 1
 184   83   84 2
 185   83   85 am
 186   85   86 1
 187   85  201 1
 188   86   87 1
 189   86   89 1
 190   86  202 1
 191   87   88 1
 192   87  203 1
 193   87  204 1
 194   88  205 1
 195   89   90 2
 196   89   91 am
 197   91   92 1
 198   91  206 1
 199   92   93 1
 200   92   96 1
 201   92  207 1
 202   93   94 1
 203   93   95 2
 204   94  208 1
 205   96   97 1
 206   96  209 1
 207   96  210 1
 208   97   98 2
 209   97  101 1
 210   98   99 1
 211   99  100 2
 212   99  211 1
 213  100  101 1
 214  100  212 1
 215  101  213 1

#	End of record

