#	Name: ASD09800032
#	Creating user name:	WinNT
#	Creation time:	15. 06. 2019 21:24

#	Modifying user name:	WinNT
#	Modification time:	15. 06. 2019 21:24

#	Program:	/corina/corina34_cracker 3.40 0067  02.08.2006

@<TRIPOS>MOLECULE
ASD09800032
  55   59    0    0    0
SMALL
NO_CHARGES


@<TRIPOS>ATOM
   1 C1            -1.2626     0.0608     1.7425 C.2     
   2 N2            -2.0209    -0.9910     1.9919 N.2     
   3 C3            -2.9508    -1.4011     1.1190 C.2     
   4 C4            -3.1537    -0.7628    -0.0474 C.2     
   5 C5            -1.4376     0.7710     0.5368 C.2     
   6 C6            -0.8380     1.8855    -0.0353 C.2     
   7 N7            -2.3941     0.3414    -0.3650 N.pl3   
   8 C8            -2.3564     1.1809    -1.4146 C.2     
   9 N9            -1.4386     2.0933    -1.2175 N.2     
  10 C10            0.2568     2.6925     0.5489 C.ar    
  11 C11            1.1015     4.8101     1.3135 C.ar    
  12 C12            2.3080     4.2040     1.6424 C.ar    
  13 C13            2.4899     2.8444     1.4195 C.ar    
  14 C14            1.4718     2.0901     0.8759 C.ar    
  15 C15            0.0777     4.0613     0.7689 C.ar    
  16 N16            3.3439     4.9654     2.1942 N.am    
  17 C17            4.1661     4.4197     3.1122 C.2     
  18 N18            5.1078     5.1774     3.7085 N.am    
  19 O19            4.0584     3.2438     3.4023 O.2     
  20 C20            5.8958     4.6377     4.7312 C.ar    
  21 C21            7.9853     4.5212     5.9018 C.ar    
  22 C22            7.2101     5.0559     4.8913 C.ar    
  23 C23            5.3631     3.6867     5.5920 C.ar    
  24 C24            6.1433     3.1560     6.6002 C.ar    
  25 C25            7.4537     3.5708     6.7537 C.ar    
  26 C26            5.5661     2.1240     7.5346 C.3     
  27 F27            5.7859     0.8456     7.0106 F       
  28 F28            6.1855     2.2285     8.7847 F       
  29 F29            4.1911     2.3400     7.6759 F       
  30 N30           -0.3077     0.4664     2.6596 N.pl3   
  31 C31           -3.2345     1.0833    -2.6354 C.3     
  32 C32           -4.7490     1.0882    -2.4184 C.3     
  33 C33           -4.0576     2.3162    -3.0139 C.3     
  34 C34           -2.6869     0.2218    -3.7751 C.3     
  35 F35           -1.0952     4.6504     0.4487 F       
  36 H36           -3.5522    -2.2658     1.3577 H       
  37 H37           -3.9098    -1.1154    -0.7332 H       
  38 H38            0.9633     5.8669     1.4880 H       
  39 H39            3.4291     2.3770     1.6762 H       
  40 H40            1.6146     1.0335     0.7037 H       
  41 H41            3.4703     5.8860     1.9162 H       
  42 H42            5.2394     6.0968     3.4287 H       
  43 H43            9.0077     4.8461     6.0268 H       
  44 H44            7.6259     5.7982     4.2261 H       
  45 H45            4.3397     3.3628     5.4731 H       
  46 H46            8.0619     3.1540     7.5428 H       
  47 H47           -0.1404    -0.0658     3.4531 H       
  48 H48            0.1940     1.2827     2.5086 H       
  49 H49           -5.3553     0.4779    -3.0878 H       
  50 H50           -5.1103     1.1619    -1.3927 H       
  51 H51           -3.9640     3.1979    -2.3800 H       
  52 H52           -4.2090     2.5139    -4.0751 H       
  53 H53           -2.5383    -0.7981    -3.4205 H       
  54 H54           -3.3970     0.2191    -4.6020 H       
  55 H55           -1.7353     0.6307    -4.1147 H       
@<TRIPOS>BOND
   1    1    2 2
   2    1   30 1
   3    1    5 1
   4    2    3 1
   5    3    4 2
   6    3   36 1
   7    4    7 1
   8    4   37 1
   9    5    7 1
  10    5    6 2
  11    6    9 1
  12    6   10 1
  13    7    8 1
  14    8    9 2
  15    8   31 1
  16   10   15 ar
  17   10   14 ar
  18   11   12 ar
  19   11   15 ar
  20   11   38 1
  21   12   13 ar
  22   12   16 1
  23   13   14 ar
  24   13   39 1
  25   14   40 1
  26   15   35 1
  27   16   17 am
  28   16   41 1
  29   17   18 am
  30   17   19 2
  31   18   20 1
  32   18   42 1
  33   20   23 ar
  34   20   22 ar
  35   21   22 ar
  36   21   25 ar
  37   21   43 1
  38   22   44 1
  39   23   24 ar
  40   23   45 1
  41   24   25 ar
  42   24   26 1
  43   25   46 1
  44   26   27 1
  45   26   28 1
  46   26   29 1
  47   30   47 1
  48   30   48 1
  49   31   32 1
  50   31   33 1
  51   31   34 1
  52   32   33 1
  53   32   49 1
  54   32   50 1
  55   33   51 1
  56   33   52 1
  57   34   53 1
  58   34   54 1
  59   34   55 1

#	End of record

