#	Name: ASD01883599
#	Creating user name:	WinNT
#	Creation time:	15. 06. 2019 19:46

#	Modifying user name:	WinNT
#	Modification time:	15. 06. 2019 19:46

#	Program:	/corina/corina34_cracker 3.40 0067  02.08.2006

@<TRIPOS>MOLECULE
ASD01883599
  50   52    0    0    0
SMALL
NO_CHARGES


@<TRIPOS>ATOM
   1 C1            -0.0434     1.3572    -0.2525 C.2     
   2 C2            -0.0325     0.0080    -0.2840 C.2     
   3 N3             1.1323    -0.6850    -0.1781 N.am    
   4 C4             2.3106    -0.0500    -0.0387 C.2     
   5 C5             2.3555     1.3512     0.0004 C.2     
   6 C6             1.1711     2.0662    -0.1075 C.2     
   7 O7             3.3431    -0.6953     0.0544 O.2     
   8 Cl8            3.8706     2.1792     0.1811 Cl      
   9 C9             1.1791     3.5463    -0.0708 C.ar    
  10 C10            0.7903     4.2756    -1.1952 C.ar    
  11 C11            0.7991     5.6551    -1.1573 C.ar    
  12 C12            1.1955     6.3172     0.0001 C.ar    
  13 C13            1.5826     5.5928     1.1199 C.ar    
  14 C14            1.5700     4.2148     1.0900 C.ar    
  15 O15            1.2043     7.6751     0.0349 O.3     
  16 C16            0.0491     8.3124     0.3605 C.ar    
  17 C17           -1.1203     7.5890     0.5727 C.ar    
  18 C18           -2.2733     8.2832     0.9025 C.ar    
  19 C19           -2.2247     9.6604     1.0091 C.ar    
  20 N20           -1.0996    10.3164     0.8010 N.ar    
  21 C21            0.0201     9.6937     0.4916 C.ar    
  22 C22            1.1043    -2.1492    -0.2160 C.3     
  23 C23            1.2453    -2.6248    -1.6634 C.3     
  24 C24            1.2785    10.4909     0.2640 C.3     
  25 C25            1.2160    -4.1540    -1.7030 C.3     
  26 C26            1.3570    -4.6295    -3.1504 C.3     
  27 F27            0.4231     6.3628    -2.2449 F       
  28 C28           -3.4742    10.4228     1.3674 C.3     
  29 H29           -0.9765     1.8937    -0.3423 H       
  30 H30           -0.9630    -0.5291    -0.3946 H       
  31 H31            0.4833     3.7612    -2.0939 H       
  32 H32            1.8898     6.1099     2.0169 H       
  33 H33            1.8710     3.6527     1.9617 H       
  34 H34           -1.1292     6.5129     0.4822 H       
  35 H35           -3.1992     7.7544     1.0740 H       
  36 H36            1.9286    -2.5439     0.3780 H       
  37 H37            0.1587    -2.5052     0.1929 H       
  38 H38            0.4210    -2.2301    -2.2574 H       
  39 H39            2.1909    -2.2687    -2.0723 H       
  40 H40            1.8132    10.6030     1.2072 H       
  41 H41            1.9130     9.9712    -0.4539 H       
  42 H42            1.0194    11.4753    -0.1260 H       
  43 H43            2.0403    -4.5486    -1.1090 H       
  44 H44            0.2704    -4.5100    -1.2940 H       
  45 H45            0.5327    -4.2348    -3.7444 H       
  46 H46            2.3026    -4.2735    -3.5593 H       
  47 H47            1.3361    -5.7189    -3.1786 H       
  48 H48           -3.5417    10.5212     2.4509 H       
  49 H49           -3.4380    11.4135     0.9142 H       
  50 H50           -4.3468     9.8852     0.9964 H       
@<TRIPOS>BOND
   1    1    2 2
   2    1    6 1
   3    1   29 1
   4    2    3 1
   5    2   30 1
   6    3    4 am
   7    3   22 1
   8    4    5 1
   9    4    7 2
  10    5    6 2
  11    5    8 1
  12    6    9 1
  13    9   10 ar
  14    9   14 ar
  15   10   11 ar
  16   10   31 1
  17   11   12 ar
  18   11   27 1
  19   12   13 ar
  20   12   15 1
  21   13   14 ar
  22   13   32 1
  23   14   33 1
  24   15   16 1
  25   16   17 ar
  26   16   21 ar
  27   17   18 ar
  28   17   34 1
  29   18   19 ar
  30   18   35 1
  31   19   20 ar
  32   19   28 1
  33   20   21 ar
  34   21   24 1
  35   22   23 1
  36   22   36 1
  37   22   37 1
  38   23   25 1
  39   23   38 1
  40   23   39 1
  41   24   40 1
  42   24   41 1
  43   24   42 1
  44   25   26 1
  45   25   43 1
  46   25   44 1
  47   26   45 1
  48   26   46 1
  49   26   47 1
  50   28   48 1
  51   28   49 1
  52   28   50 1

#	End of record

