#	Name: ASD01940505
#	Creating user name:	WinNT
#	Creation time:	15. 06. 2019 20:12

#	Modifying user name:	WinNT
#	Modification time:	15. 06. 2019 20:12

#	Program:	/corina/corina34_cracker 3.40 0067  02.08.2006

@<TRIPOS>MOLECULE
ASD01940505
  48   50    0    0    0
SMALL
NO_CHARGES


@<TRIPOS>ATOM
   1 N1             1.4871     2.5408    -2.4627 N.am    
   2 N2             1.9944     1.5151    -3.2669 N.2     
   3 C3             2.7897     0.7538    -2.5726 C.2     
   4 C4             2.8385     1.2784    -1.2110 C.ar    
   5 C5             3.5114     0.8873    -0.0410 C.ar    
   6 C6             3.3418     1.6176     1.1204 C.ar    
   7 C7             2.5103     2.7335     1.1333 C.ar    
   8 C8             1.8426     3.1274    -0.0124 C.ar    
   9 C9             1.9998     2.4072    -1.1908 C.ar    
  10 C10            0.6389     3.5068    -2.8676 C.2     
  11 O11            0.2610     4.3519    -2.0814 O.2     
  12 O12            0.2106     3.5349    -4.1434 O.3     
  13 N13            4.0476     1.2104     2.3563 N.pl3   
  14 O14            5.1904     1.5817     2.5555 O.2     
  15 O15            3.4854     0.5041     3.1741 O.2     
  16 O16            2.3526     3.4423     2.2817 O.3     
  17 C17            1.4859     4.5773     2.2298 C.3     
  18 N18            4.3440    -0.2298    -0.0513 N.pl3   
  19 C19            3.8491    -1.4747     0.3511 C.ar    
  20 C20            4.6435    -2.6112     0.2362 C.ar    
  21 C21            4.1505    -3.8395     0.6350 C.ar    
  22 C22            2.8688    -3.9385     1.1473 C.ar    
  23 C23            2.0775    -2.8102     1.2619 C.ar    
  24 C24            2.5663    -1.5782     0.8713 C.ar    
  25 I25            2.1253    -5.8021     1.7499 I       
  26 F26            5.8944    -2.5144    -0.2647 F       
  27 C27           -0.7016     4.6037    -4.5091 C.3     
  28 C28           -0.0245     5.9553    -4.2728 C.3     
  29 C29           -1.0754     4.4719    -5.9868 C.3     
  30 C30           -1.9662     4.5102    -3.6529 C.3     
  31 H31            3.3196    -0.1131    -2.9388 H       
  32 H32            1.1992     3.9946     0.0088 H       
  33 H33            1.4492     5.0516     3.2105 H       
  34 H34            1.8631     5.2892     1.4957 H       
  35 H35            0.4842     4.2566     1.9436 H       
  36 H36            5.2668    -0.1443    -0.3376 H       
  37 H37            4.7660    -4.7226     0.5465 H       
  38 H38            1.0775    -2.8914     1.6618 H       
  39 H39            1.9488    -0.6972     0.9659 H       
  40 H40            0.8763     6.0219    -4.8828 H       
  41 H41           -0.7094     6.7576    -4.5474 H       
  42 H42            0.2417     6.0492    -3.2200 H       
  43 H43           -1.5578     3.5091    -6.1551 H       
  44 H44           -1.7602     5.2743    -6.2614 H       
  45 H45           -0.1745     4.5386    -6.5968 H       
  46 H46           -1.6999     4.6041    -2.6001 H       
  47 H47           -2.6510     5.3126    -3.9274 H       
  48 H48           -2.4485     3.5474    -3.8212 H       
@<TRIPOS>BOND
   1    1    2 1
   2    1    9 1
   3    1   10 am
   4    2    3 2
   5    3    4 1
   6    3   31 1
   7    4    5 ar
   8    4    9 ar
   9    5    6 ar
  10    5   18 1
  11    6    7 ar
  12    6   13 1
  13    7    8 ar
  14    7   16 1
  15    8    9 ar
  16    8   32 1
  17   10   11 2
  18   10   12 1
  19   12   27 1
  20   13   14 2
  21   13   15 2
  22   16   17 1
  23   17   33 1
  24   17   34 1
  25   17   35 1
  26   18   19 1
  27   18   36 1
  28   19   20 ar
  29   19   24 ar
  30   20   21 ar
  31   20   26 1
  32   21   22 ar
  33   21   37 1
  34   22   23 ar
  35   22   25 1
  36   23   24 ar
  37   23   38 1
  38   24   39 1
  39   27   28 1
  40   27   30 1
  41   27   29 1
  42   28   40 1
  43   28   41 1
  44   28   42 1
  45   29   43 1
  46   29   44 1
  47   29   45 1
  48   30   46 1
  49   30   47 1
  50   30   48 1

#	End of record

