#	Name: ASD03091839
#	Creating user name:	WinNT
#	Creation time:	15. 06. 2019 20:31

#	Modifying user name:	WinNT
#	Modification time:	15. 06. 2019 20:31

#	Program:	/corina/corina34_cracker 3.40 0067  02.08.2006

@<TRIPOS>MOLECULE
ASD03091839
  48   52    0    0    0
SMALL
NO_CHARGES


@<TRIPOS>ATOM
   1 N1            10.2421    -3.0654     2.3186 N.pl3   
   2 C2             9.2011    -3.9522     2.3617 C.2     
   3 C3             8.0590    -3.3347     2.0214 C.2     
   4 C4             8.3964    -1.9375     1.7371 C.ar    
   5 C5             7.6558    -0.8232     1.3430 C.ar    
   6 C6             8.2999     0.3914     1.1546 C.ar    
   7 C7             9.6800     0.4931     1.3592 C.ar    
   8 C8            10.4092    -0.5944     1.7444 C.ar    
   9 C9             9.7844    -1.8231     1.9399 C.ar    
  10 C10            6.1482     1.4963     0.5273 C.ar    
  11 C11            7.5235     1.5844     0.7349 C.ar    
  12 C12            8.1595     2.8125     0.5423 C.ar    
  13 C13            7.3876     3.8988     0.1498 C.ar    
  14 C14            6.0229     3.7273    -0.0358 C.ar    
  15 N15            5.4549     2.5526     0.1552 N.ar    
  16 O16            7.9617     5.1146    -0.0497 O.3     
  17 C17           11.4086     6.5168    -0.5537 C.3     
  18 C18            9.8967     6.3630    -0.7845 C.3     
  19 C19            9.3857     5.1835     0.0478 C.3     
  20 C20            9.7874     5.3724     1.5134 C.3     
  21 C21           11.3067     5.5933     1.5884 C.3     
  22 C22           11.9857     4.5083     0.7212 C.3     
  23 C23           12.0531     5.1185    -0.6942 C.3     
  24 N24           11.6025     6.8663     0.8787 N.3     
  25 C25           12.9823     7.3019     1.1322 C.3     
  26 H26           11.1648    -3.2790     2.5278 H       
  27 H27            9.2858    -4.9950     2.6298 H       
  28 H28            7.0777    -3.7825     1.9674 H       
  29 H29            6.5905    -0.9051     1.1855 H       
  30 H30           10.1737     1.4420     1.2104 H       
  31 H31           11.4742    -0.5015     1.8980 H       
  32 H32            5.6461     0.5506     0.6688 H       
  33 H33            9.2238     2.9152     0.6949 H       
  34 H34            5.4174     4.5680    -0.3405 H       
  35 H35           11.8549     7.2462    -1.2297 H       
  36 H36            9.3858     7.2754    -0.4769 H       
  37 H37            9.7060     6.1742    -1.8409 H       
  38 H38            9.8201     4.2580    -0.3300 H       
  39 H39            9.2715     6.2402     1.9244 H       
  40 H40            9.5193     4.4826     2.0830 H       
  41 H41           11.6720     5.5885     2.6153 H       
  42 H42           12.9890     4.2991     1.0923 H       
  43 H43           11.3857     3.5983     0.7138 H       
  44 H44           11.4863     4.5085    -1.3976 H       
  45 H45           13.0895     5.2094    -1.0191 H       
  46 H46           13.2035     8.1799     0.5252 H       
  47 H47           13.0966     7.5514     2.1871 H       
  48 H48           13.6708     6.4978     0.8724 H       
@<TRIPOS>BOND
   1    1    2 1
   2    1    9 1
   3    1   26 1
   4    2    3 2
   5    2   27 1
   6    3    4 1
   7    3   28 1
   8    4    5 ar
   9    4    9 ar
  10    5    6 ar
  11    5   29 1
  12    6    7 ar
  13    6   11 1
  14    7    8 ar
  15    7   30 1
  16    8    9 ar
  17    8   31 1
  18   10   11 ar
  19   10   15 ar
  20   10   32 1
  21   11   12 ar
  22   12   13 ar
  23   12   33 1
  24   13   14 ar
  25   13   16 1
  26   14   15 ar
  27   14   34 1
  28   16   19 1
  29   17   18 1
  30   17   23 1
  31   17   24 1
  32   17   35 1
  33   18   19 1
  34   18   36 1
  35   18   37 1
  36   19   20 1
  37   19   38 1
  38   20   21 1
  39   20   39 1
  40   20   40 1
  41   21   22 1
  42   21   24 1
  43   21   41 1
  44   22   23 1
  45   22   42 1
  46   22   43 1
  47   23   44 1
  48   23   45 1
  49   24   25 1
  50   25   46 1
  51   25   47 1
  52   25   48 1

#	End of record

