#	Name: ASD01885388
#	Creating user name:	WinNT
#	Creation time:	15. 06. 2019 19:49

#	Modifying user name:	WinNT
#	Modification time:	15. 06. 2019 19:49

#	Program:	/corina/corina34_cracker 3.40 0067  02.08.2006

@<TRIPOS>MOLECULE
ASD01885388
  28   30    0    0    0
SMALL
NO_CHARGES


@<TRIPOS>ATOM
   1 C1            -0.0168     1.3903     0.0097 C.ar    
   2 C2             0.0021    -0.0041     0.0020 C.ar    
   3 N3            -1.1139    -0.7754     0.0172 N.2     
   4 C4            -2.1885    -0.5709    -0.6526 C.2     
   5 C5            -2.3478     0.6302    -1.5473 C.3     
   6 C6            -2.2778     1.8682    -0.6895 C.2     
   7 N7            -1.1820     2.1446     0.0191 N.am    
   8 C8             1.1907     2.0903     0.0019 C.ar    
   9 C9             2.3949     1.4190    -0.0172 C.ar    
  10 C10            2.4175     0.0333    -0.0293 C.ar    
  11 C11            1.2384    -0.6739    -0.0194 C.ar    
  12 C12           -3.2962    -1.5366    -0.5442 C.ar    
  13 C13           -3.1706    -2.6589     0.2797 C.ar    
  14 N14           -4.1665    -3.5201     0.3724 N.ar    
  15 C15           -5.2801    -3.3225    -0.3120 C.ar    
  16 C16           -5.4096    -2.2111    -1.1305 C.ar    
  17 N17           -4.4236    -1.3408    -1.2269 N.ar    
  18 O18           -3.2279     2.6208    -0.6434 O.2     
  19 Br19           4.0175     2.3900    -0.0275 Br      
  20 H20           -1.5457     0.6482    -2.2852 H       
  21 H21           -3.3125     0.5870    -2.0528 H       
  22 H22           -1.2010     2.9327     0.5843 H       
  23 H23            1.1817     3.1703     0.0106 H       
  24 H24            3.3614    -0.4912    -0.0463 H       
  25 H25            1.2619    -1.7536    -0.0294 H       
  26 H26           -2.2609    -2.8210     0.8388 H       
  27 H27           -6.0923    -4.0300    -0.2334 H       
  28 H28           -6.3219    -2.0553    -1.6870 H       
@<TRIPOS>BOND
   1    1    2 ar
   2    1    8 ar
   3    1    7 1
   4    2    3 1
   5    2   11 ar
   6    3    4 2
   7    4    5 1
   8    4   12 1
   9    5    6 1
  10    5   20 1
  11    5   21 1
  12    6    7 am
  13    6   18 2
  14    7   22 1
  15    8    9 ar
  16    8   23 1
  17    9   10 ar
  18    9   19 1
  19   10   11 ar
  20   10   24 1
  21   11   25 1
  22   12   13 ar
  23   12   17 ar
  24   13   14 ar
  25   13   26 1
  26   14   15 ar
  27   15   16 ar
  28   15   27 1
  29   16   17 ar
  30   16   28 1

#	End of record

