#	Name: ASD04230092
#	Creating user name:	WinNT
#	Creation time:	15. 06. 2019 20:48

#	Modifying user name:	WinNT
#	Modification time:	15. 06. 2019 20:48

#	Program:	/corina/corina34_cracker 3.40 0067  02.08.2006

@<TRIPOS>MOLECULE
ASD04230092
  47   51    0    0    0
SMALL
NO_CHARGES


@<TRIPOS>ATOM
   1 C1             1.5359     4.6862     1.7199 C.ar    
   2 C2             2.5438     5.3840     2.3697 C.ar    
   3 C3             3.8003     4.8590     2.4683 C.ar    
   4 C4             4.0824     3.6081     1.9006 C.ar    
   5 C5             3.0563     2.8818     1.2694 C.ar    
   6 C6             1.7831     3.4396     1.1728 C.ar    
   7 C7             5.3933     3.0678     1.9622 C.2     
   8 C8             5.6627     1.9284     1.2158 C.2     
   9 C9             4.5671     1.3877     0.3906 C.2     
  10 O10            3.2978     1.6422     0.7795 O.3     
  11 C11            6.9878     1.2871     1.2467 C.2     
  12 N12            7.2188     0.1818     0.5109 N.am    
  13 O13            7.8739     1.7548     1.9362 O.2     
  14 C14            8.5059    -0.3623     0.4514 C.ar    
  15 C15            8.6753    -1.7390     0.3692 C.ar    
  16 C16            9.9457    -2.2805     0.3098 C.ar    
  17 C17           11.0532    -1.4569     0.3317 C.ar    
  18 C18           10.8929    -0.0743     0.4145 C.ar    
  19 C19            9.6134     0.4724     0.4687 C.ar    
  20 C20           12.0819     0.8120     0.4392 C.ar    
  21 O21            4.7981     0.7334    -0.6090 O.2     
  22 O22            0.7868     2.7609     0.5437 O.3     
  23 N23           11.9146     2.1231     0.6197 N.ar    
  24 C24           12.9174     2.9663     0.6527 C.ar    
  25 C25           14.2348     2.5045     0.4946 C.ar    
  26 C26           14.4546     1.1150     0.3003 C.ar    
  27 C27           13.3402     0.2602     0.2802 C.ar    
  28 C28           15.3345     3.3763     0.5225 C.ar    
  29 C29           16.5917     2.8773     0.3633 C.ar    
  30 C30           16.8064     1.5135     0.1726 C.ar    
  31 C31           15.7642     0.6371     0.1403 C.ar    
  32 H32            0.5487     5.1178     1.6445 H       
  33 H33            2.3326     6.3514     2.8011 H       
  34 H34            4.5762     5.4065     2.9827 H       
  35 H35            6.1575     3.5287     2.5705 H       
  36 H36            6.4924    -0.2364     0.0225 H       
  37 H37            7.8121    -2.3878     0.3520 H       
  38 H38           10.0721    -3.3511     0.2463 H       
  39 H39           12.0443    -1.8836     0.2851 H       
  40 H40            9.4840     1.5427     0.5329 H       
  41 H41            0.2742     2.1848     1.1271 H       
  42 H42           12.7304     4.0195     0.8016 H       
  43 H43           13.4625    -0.8030     0.1351 H       
  44 H44           15.1847     4.4358     0.6690 H       
  45 H45           17.4365     3.5499     0.3847 H       
  46 H46           17.8144     1.1460     0.0491 H       
  47 H47           15.9444    -0.4175    -0.0078 H       
@<TRIPOS>BOND
   1    1    2 ar
   2    1    6 ar
   3    1   32 1
   4    2    3 ar
   5    2   33 1
   6    3    4 ar
   7    3   34 1
   8    4    5 ar
   9    4    7 1
  10    5    6 ar
  11    5   10 1
  12    6   22 1
  13    7    8 2
  14    7   35 1
  15    8    9 1
  16    8   11 1
  17    9   10 1
  18    9   21 2
  19   11   12 am
  20   11   13 2
  21   12   14 1
  22   12   36 1
  23   14   15 ar
  24   14   19 ar
  25   15   16 ar
  26   15   37 1
  27   16   17 ar
  28   16   38 1
  29   17   18 ar
  30   17   39 1
  31   18   19 ar
  32   18   20 1
  33   19   40 1
  34   20   23 ar
  35   20   27 ar
  36   22   41 1
  37   23   24 ar
  38   24   25 ar
  39   24   42 1
  40   25   26 ar
  41   25   28 ar
  42   26   27 ar
  43   26   31 ar
  44   27   43 1
  45   28   29 ar
  46   28   44 1
  47   29   30 ar
  48   29   45 1
  49   30   31 ar
  50   30   46 1
  51   31   47 1

#	End of record

