#	Name: ASD00069180
#	Creating user name:	WinNT
#	Creation time:	15. 06. 2019 18:29

#	Modifying user name:	WinNT
#	Modification time:	15. 06. 2019 18:29

#	Program:	/corina/corina34_cracker 3.40 0067  02.08.2006

@<TRIPOS>MOLECULE
ASD00069180
  72   76    0    0    0
SMALL
NO_CHARGES


@<TRIPOS>ATOM
   1 C1            -0.0160     1.3082    -0.0029 C.2     
   2 N2             0.0009    -0.0048    -0.0397 N.2     
   3 C3             1.2724    -0.4254    -0.0668 C.2     
   4 C4             2.0850     0.6867    -0.0455 C.2     
   5 N5             1.2727     1.7655    -0.0056 N.pl3   
   6 C6            -1.2258     2.1507     0.0296 C.2     
   7 O7            -1.1225     3.3620     0.0623 O.2     
   8 N8            -2.4459     1.5783     0.0231 N.am    
   9 C9            -3.5930     2.3733     0.1388 C.ar    
  10 C10           -4.7679     1.8335     0.6604 C.ar    
  11 C11           -5.9016     2.6274     0.7723 C.ar    
  12 C12           -5.8621     3.9501     0.3663 C.ar    
  13 C13           -4.6961     4.4839    -0.1508 C.ar    
  14 C14           -3.5616     3.7016    -0.2601 C.ar    
  15 F15           -7.0427     2.1090     1.2767 F       
  16 N16           -4.8046     0.4945     1.0699 N.3     
  17 C17           -5.1402     0.3892     2.4957 C.3     
  18 C18           -5.0289    -1.0708     2.9408 C.3     
  19 C19           -5.9858    -1.9277     2.1074 C.3     
  20 C20           -5.6458    -1.7625     0.6237 C.3     
  21 C21           -5.7392    -0.2825     0.2457 C.3     
  22 C22           -5.8351    -3.3972     2.5060 C.3     
  23 N23           -6.8355    -4.2030     1.7933 N.3     
  24 C24            3.4361    -3.3871    -0.1737 C.ar    
  25 N25            3.0252    -2.1294    -0.1345 N.ar    
  26 C26            1.7246    -1.8365    -0.1111 C.ar    
  27 C27            0.7963    -2.8758    -0.1286 C.ar    
  28 C28            1.2694    -4.1857    -0.1699 C.ar    
  29 N29            2.5822    -4.3996    -0.1913 N.ar    
  30 N30            0.3839    -5.2518    -0.1881 N.pl3   
  31 C31           -1.0600    -5.0052    -0.1638 C.3     
  32 C32           -1.5239    -4.8345     1.2841 C.3     
  33 C33           -1.7796    -6.1731    -0.7875 C.ar    
  34 C34           -2.8672    -5.9544    -1.6123 C.ar    
  35 C35           -3.5273    -7.0258    -2.1844 C.ar    
  36 C36           -3.0997    -8.3158    -1.9320 C.ar    
  37 C37           -2.0116    -8.5345    -1.1080 C.ar    
  38 C38           -1.3487    -7.4630    -0.5394 C.ar    
  39 O39           -1.3381    -6.0620     1.9917 O.3     
  40 N40            4.7944    -3.6511    -0.2029 N.pl3   
  41 H41            3.1649     0.6947    -0.0580 H       
  42 H42            1.5524     2.6940     0.0169 H       
  43 H43           -2.5296     0.6156    -0.0616 H       
  44 H44           -6.7444     4.5668     0.4533 H       
  45 H45           -4.6704     5.5164    -0.4665 H       
  46 H46           -2.6515     4.1237    -0.6600 H       
  47 H47           -4.4497     0.9999     3.0773 H       
  48 H48           -6.1593     0.7410     2.6558 H       
  49 H49           -4.0066    -1.4192     2.7938 H       
  50 H50           -5.2932    -1.1509     3.9953 H       
  51 H51           -7.0118    -1.6048     2.2842 H       
  52 H52           -4.6332    -2.1217     0.4402 H       
  53 H53           -6.3508    -2.3368     0.0226 H       
  54 H54           -6.7555     0.0725     0.4164 H       
  55 H55           -5.4837    -0.1596    -0.8068 H       
  56 H56           -4.8355    -3.7441     2.2439 H       
  57 H57           -5.9849    -3.4994     3.5808 H       
  58 H58           -6.7588    -4.0748     0.7954 H       
  59 H59           -6.7565    -5.1782     2.0397 H       
  60 H60           -0.2639    -2.6708    -0.1101 H       
  61 H61            0.7202    -6.1611    -0.2169 H       
  62 H62           -1.2833    -4.0985    -0.7262 H       
  63 H63           -0.9405    -4.0476     1.7622 H       
  64 H64           -2.5796    -4.5634     1.2978 H       
  65 H65           -3.2013    -4.9465    -1.8095 H       
  66 H66           -4.3775    -6.8549    -2.8282 H       
  67 H67           -3.6159    -9.1529    -2.3784 H       
  68 H68           -1.6776    -9.5425    -0.9105 H       
  69 H69           -0.4964    -7.6336     0.1015 H       
  70 H70           -1.6117    -6.0271     2.9185 H       
  71 H71            5.4310    -2.9193    -0.1945 H       
  72 H72            5.1097    -4.5680    -0.2317 H       
@<TRIPOS>BOND
   1    1    2 2
   2    1    5 1
   3    1    6 1
   4    2    3 1
   5    3    4 2
   6    3   26 1
   7    4    5 1
   8    4   41 1
   9    5   42 1
  10    6    7 2
  11    6    8 am
  12    8    9 1
  13    8   43 1
  14    9   10 ar
  15    9   14 ar
  16   10   11 ar
  17   10   16 1
  18   11   12 ar
  19   11   15 1
  20   12   13 ar
  21   12   44 1
  22   13   14 ar
  23   13   45 1
  24   14   46 1
  25   16   17 1
  26   16   21 1
  27   17   18 1
  28   17   47 1
  29   17   48 1
  30   18   19 1
  31   18   49 1
  32   18   50 1
  33   19   20 1
  34   19   22 1
  35   19   51 1
  36   20   21 1
  37   20   52 1
  38   20   53 1
  39   21   54 1
  40   21   55 1
  41   22   23 1
  42   22   56 1
  43   22   57 1
  44   23   58 1
  45   23   59 1
  46   24   25 ar
  47   24   29 ar
  48   24   40 1
  49   25   26 ar
  50   26   27 ar
  51   27   28 ar
  52   27   60 1
  53   28   29 ar
  54   28   30 1
  55   30   31 1
  56   30   61 1
  57   31   32 1
  58   31   33 1
  59   31   62 1
  60   32   39 1
  61   32   63 1
  62   32   64 1
  63   33   34 ar
  64   33   38 ar
  65   34   35 ar
  66   34   65 1
  67   35   36 ar
  68   35   66 1
  69   36   37 ar
  70   36   67 1
  71   37   38 ar
  72   37   68 1
  73   38   69 1
  74   39   70 1
  75   40   71 1
  76   40   72 1

#	End of record

