#	Name: ASD01911446
#	Creating user name:	WinNT
#	Creation time:	15. 06. 2019 19:57

#	Modifying user name:	WinNT
#	Modification time:	15. 06. 2019 19:57

#	Program:	/corina/corina34_cracker 3.40 0067  02.08.2006

@<TRIPOS>MOLECULE
ASD01911446
  35   37    0    0    0
SMALL
NO_CHARGES


@<TRIPOS>ATOM
   1 N1            -0.0069     1.4096    -0.0033 N.2     
   2 N2            -0.0071     0.0097    -0.0453 N.pl3   
   3 C3             1.2421     1.8243     0.0384 C.2     
   4 C4             2.0818     0.6980     0.0242 C.2     
   5 C5             1.2898    -0.4114    -0.0276 C.2     
   6 C6             1.7536    -1.8164    -0.0594 C.ar    
   7 C7             1.6868     3.2396     0.0906 C.ar    
   8 C8            -1.1918    -0.8505    -0.0982 C.3     
   9 C9            -1.6295    -1.0152    -1.5307 C.2     
  10 O10           -2.7021    -1.7676    -1.8225 O.3     
  11 O11           -1.0150    -0.4699    -2.4167 O.2     
  12 C12            0.7470     4.2675     0.0992 C.ar    
  13 C13            3.0458     3.5440     0.1369 C.ar    
  14 C14            3.4545     4.8613     0.1852 C.ar    
  15 C15            2.5181     5.8793     0.1883 C.ar    
  16 C16            1.1666     5.5830     0.1478 C.ar    
  17 C17            0.9281    -2.8149    -0.5765 C.ar    
  18 C18            1.3663    -4.1230    -0.6034 C.ar    
  19 C19            2.6214    -4.4452    -0.1188 C.ar    
  20 C20            3.4448    -3.4595     0.3952 C.ar    
  21 C21            3.0204    -2.1468     0.4223 C.ar    
  22 Cl22          -0.0026     6.8661     0.1520 Cl      
  23 H23            3.1615     0.7086     0.0501 H       
  24 H24           -0.9510    -1.8268     0.3227 H       
  25 H25           -1.9974    -0.3953     0.4779 H       
  26 H26           -2.9444    -1.8436    -2.7556 H       
  27 H27           -0.3076     4.0367     0.0676 H       
  28 H28            3.7781     2.7503     0.1352 H       
  29 H29            4.5077     5.0978     0.2211 H       
  30 H30            2.8424     6.9087     0.2270 H       
  31 H31           -0.0521    -2.5647    -0.9547 H       
  32 H32            0.7279    -4.8971    -1.0031 H       
  33 H33            2.9597    -5.4706    -0.1417 H       
  34 H34            4.4236    -3.7173     0.7720 H       
  35 H35            3.6640    -1.3782     0.8239 H       
@<TRIPOS>BOND
   1    1    2 1
   2    1    3 2
   3    2    8 1
   4    2    5 1
   5    3    4 1
   6    3    7 1
   7    4    5 2
   8    4   23 1
   9    5    6 1
  10    6   17 ar
  11    6   21 ar
  12    7   12 ar
  13    7   13 ar
  14    8    9 1
  15    8   24 1
  16    8   25 1
  17    9   10 1
  18    9   11 2
  19   10   26 1
  20   12   16 ar
  21   12   27 1
  22   13   14 ar
  23   13   28 1
  24   14   15 ar
  25   14   29 1
  26   15   16 ar
  27   15   30 1
  28   16   22 1
  29   17   18 ar
  30   17   31 1
  31   18   19 ar
  32   18   32 1
  33   19   20 ar
  34   19   33 1
  35   20   21 ar
  36   20   34 1
  37   21   35 1

#	End of record

