#	Name: ASD00170939
#	Creating user name:	WinNT
#	Creation time:	15. 06. 2019 18:32

#	Modifying user name:	WinNT
#	Modification time:	15. 06. 2019 18:32

#	Program:	/corina/corina34_cracker 3.40 0067  02.08.2006

@<TRIPOS>MOLECULE
ASD00170939
  54   58    0    0    0
SMALL
NO_CHARGES


@<TRIPOS>ATOM
   1 C1            -2.7057    -1.5669    -4.4735 C.ar    
   2 C2            -1.8236    -1.8673    -3.4487 C.ar    
   3 C3            -2.1503    -1.5652    -2.1435 C.ar    
   4 C4            -3.3727    -0.9552    -1.8561 C.ar    
   5 C5            -4.2576    -0.6549    -2.8932 C.ar    
   6 C6            -3.9177    -0.9570    -4.1951 C.ar    
   7 C7            -3.7291    -0.6291    -0.4584 C.2     
   8 O8            -2.9976    -0.9727     0.4525 O.2     
   9 C9            -4.9602     0.1063    -0.1701 C.2     
  10 C10           -6.2647    -0.5156    -0.0829 C.2     
  11 C11           -7.2349     0.3434     0.1883 C.2     
  12 S12           -6.6023     1.9715     0.3532 S.3     
  13 C13           -5.0034     1.4630     0.0535 C.2     
  14 N14           -3.9047     2.2981     0.0311 N.pl3   
  15 C15           -6.4950    -1.9916    -0.2810 C.3     
  16 N16           -6.3154    -2.6912     0.9982 N.3     
  17 Cl17          -2.2873    -1.9498    -6.1143 Cl      
  18 C18           -6.6921    -4.1151     0.8805 C.3     
  19 C19           -6.5794    -4.7211     2.2768 C.3     
  20 N20           -5.1482    -4.6151     2.6631 N.3     
  21 C21           -4.7687    -3.2350     2.8538 C.3     
  22 C22           -4.9541    -2.5073     1.5110 C.3     
  23 C23           -6.7617    -6.2523     2.2968 C.3     
  24 C24           -5.7981    -6.6517     3.3918 C.ar    
  25 C25           -4.8771    -5.5968     3.5669 C.ar    
  26 C26           -5.7415    -7.8026     4.1457 C.ar    
  27 C27           -4.7427    -7.8843     5.1093 C.ar    
  28 C28           -3.8457    -6.8534     5.3021 C.ar    
  29 C29           -3.8871    -5.6940     4.5453 C.ar    
  30 C30           -4.6378    -9.1233     5.9607 C.3     
  31 H31           -0.8784    -2.3395    -3.6722 H       
  32 H32           -1.4619    -1.8002    -1.3451 H       
  33 H33           -5.2049    -0.1834    -2.6768 H       
  34 H34           -4.6014    -0.7251    -4.9983 H       
  35 H35           -8.2763     0.0776     0.2939 H       
  36 H36           -4.0025     3.2345     0.2646 H       
  37 H37           -3.0349     1.9486    -0.2181 H       
  38 H38           -7.5091    -2.1555    -0.6454 H       
  39 H39           -5.7807    -2.3763    -1.0089 H       
  40 H40           -7.7171    -4.2002     0.5195 H       
  41 H41           -6.0124    -4.6247     0.1976 H       
  42 H42           -7.2339    -4.2182     2.9887 H       
  43 H43           -5.4049    -2.7785     3.6121 H       
  44 H44           -3.7251    -3.1784     3.1634 H       
  45 H45           -4.2422    -2.9041     0.7874 H       
  46 H46           -4.7652    -1.4430     1.6514 H       
  47 H47           -7.7850    -6.5214     2.5584 H       
  48 H48           -6.4744    -6.6933     1.3423 H       
  49 H49           -6.4440    -8.6088     3.9945 H       
  50 H50           -3.0888    -6.9536     6.0659 H       
  51 H51           -3.1787    -4.8949     4.7061 H       
  52 H52           -3.9798    -9.8436     5.4745 H       
  53 H53           -4.2301    -8.8600     6.9367 H       
  54 H54           -5.6274    -9.5624     6.0867 H       
@<TRIPOS>BOND
   1    1    2 ar
   2    1   17 1
   3    1    6 ar
   4    2    3 ar
   5    2   31 1
   6    3    4 ar
   7    3   32 1
   8    4    5 ar
   9    4    7 1
  10    5    6 ar
  11    5   33 1
  12    6   34 1
  13    7    8 2
  14    7    9 1
  15    9   10 1
  16    9   13 2
  17   10   11 2
  18   10   15 1
  19   11   12 1
  20   11   35 1
  21   12   13 1
  22   13   14 1
  23   14   36 1
  24   14   37 1
  25   15   16 1
  26   15   38 1
  27   15   39 1
  28   16   18 1
  29   16   22 1
  30   18   19 1
  31   18   40 1
  32   18   41 1
  33   19   20 1
  34   19   23 1
  35   19   42 1
  36   20   21 1
  37   20   25 1
  38   21   22 1
  39   21   43 1
  40   21   44 1
  41   22   45 1
  42   22   46 1
  43   23   24 1
  44   23   47 1
  45   23   48 1
  46   24   25 ar
  47   24   26 ar
  48   25   29 ar
  49   26   27 ar
  50   26   49 1
  51   27   28 ar
  52   27   30 1
  53   28   29 ar
  54   28   50 1
  55   29   51 1
  56   30   52 1
  57   30   53 1
  58   30   54 1

#	End of record

