#	Name: ASD02198053
#	Creating user name:	WinNT
#	Creation time:	15. 06. 2019 20:18

#	Modifying user name:	WinNT
#	Modification time:	15. 06. 2019 20:18

#	Program:	/corina/corina34_cracker 3.40 0067  02.08.2006

@<TRIPOS>MOLECULE
ASD02198053
  47   49    0    0    0
SMALL
NO_CHARGES


@<TRIPOS>ATOM
   1 C1            -0.0184     1.3440    -0.2886 C.2     
   2 C2             0.0096    -0.0344    -0.2510 C.2     
   3 C3            -1.1726    -0.8408    -0.3028 C.1     
   4 S4             1.5587     1.9868    -0.2089 S.3     
   5 C5             2.2776     0.3866    -0.1234 C.2     
   6 C6             1.2917    -0.5715    -0.1587 C.2     
   7 C7             3.6574     0.1239    -0.0326 C.2     
   8 C8             4.6310     1.2328    -0.1476 C.ar    
   9 O9             4.0506    -1.0172     0.1407 O.2     
  10 N10            1.5475    -1.9326    -0.1072 N.pl3   
  11 N11           -1.1640     2.0984    -0.3835 N.pl3   
  12 N12           -2.1105    -1.4805    -0.3438 N.1     
  13 C13           -1.0777     3.5605    -0.4157 C.3     
  14 C14           -2.4845     4.1521    -0.5236 C.3     
  15 N15           -2.3980     5.6182    -0.5559 N.3     
  16 C16           -3.6962     6.2146    -0.8954 C.3     
  17 C17           -1.3503     6.0632    -1.4836 C.3     
  18 C18           -1.1898     7.5819    -1.3834 C.3     
  19 C19           -2.5216     8.2547    -1.7272 C.3     
  20 C20           -3.6058     7.7378    -0.7776 C.3     
  21 C21            4.3291     2.3522    -0.9238 C.ar    
  22 C22            5.2406     3.3830    -1.0275 C.ar    
  23 C23            6.4521     3.3086    -0.3643 C.ar    
  24 C24            6.7586     2.2002     0.4076 C.ar    
  25 C25            5.8520     1.1655     0.5244 C.ar    
  26 Cl26           8.2821     2.1152     1.2354 Cl      
  27 H27            2.4610    -2.2523    -0.0428 H       
  28 H28            0.8130    -2.5655    -0.1357 H       
  29 H29           -2.0293     1.6625    -0.4291 H       
  30 H30           -0.6029     3.9166     0.4985 H       
  31 H31           -0.4861     3.8706    -1.2770 H       
  32 H32           -2.9594     3.7959    -1.4378 H       
  33 H33           -3.0762     3.8420     0.3378 H       
  34 H34           -3.9639     5.9446    -1.9169 H       
  35 H35           -4.4575     5.8420    -0.2100 H       
  36 H36           -0.4077     5.5806    -1.2255 H       
  37 H37           -1.6290     5.7939    -2.5024 H       
  38 H38           -0.8976     7.8507    -0.3683 H       
  39 H39           -0.4230     7.9137    -2.0834 H       
  40 H40           -2.4238     9.3345    -1.6151 H       
  41 H41           -2.7947     8.0177    -2.7555 H       
  42 H42           -4.5651     8.1811    -1.0448 H       
  43 H43           -3.3516     8.0091     0.2470 H       
  44 H44            3.3839     2.4117    -1.4429 H       
  45 H45            5.0076     4.2498    -1.6282 H       
  46 H46            7.1622     4.1179    -0.4490 H       
  47 H47            6.0916     0.3014     1.1264 H       
@<TRIPOS>BOND
   1    1    2 2
   2    1    4 1
   3    1   11 1
   4    2    3 1
   5    2    6 1
   6    3   12 3
   7    4    5 1
   8    5    6 2
   9    5    7 1
  10    6   10 1
  11    7    8 1
  12    7    9 2
  13    8   21 ar
  14    8   25 ar
  15   10   27 1
  16   10   28 1
  17   11   13 1
  18   11   29 1
  19   13   14 1
  20   13   30 1
  21   13   31 1
  22   14   15 1
  23   14   32 1
  24   14   33 1
  25   15   16 1
  26   15   17 1
  27   16   20 1
  28   16   34 1
  29   16   35 1
  30   17   18 1
  31   17   36 1
  32   17   37 1
  33   18   19 1
  34   18   38 1
  35   18   39 1
  36   19   20 1
  37   19   40 1
  38   19   41 1
  39   20   42 1
  40   20   43 1
  41   21   22 ar
  42   21   44 1
  43   22   23 ar
  44   22   45 1
  45   23   24 ar
  46   23   46 1
  47   24   25 ar
  48   24   26 1
  49   25   47 1

#	End of record

