#	Name: ASD07930579
#	Creating user name:	WinNT
#	Creation time:	15. 06. 2019 21:12

#	Modifying user name:	WinNT
#	Modification time:	15. 06. 2019 21:12

#	Program:	/corina/corina34_cracker 3.40 0067  02.08.2006

@<TRIPOS>MOLECULE
ASD07930579
  47   49    0    0    0
SMALL
NO_CHARGES


@<TRIPOS>ATOM
   1 C1            -0.0502     1.4821    -0.0094 C.3     
   2 N2             0.7773    -0.3946    -2.1782 N.2     
   3 N3            -0.8979    -1.7688    -1.3026 N.pl3   
   4 C4            -0.9127    -2.8082    -0.2679 C.3     
   5 C5            -1.2240    -2.1653     1.0907 C.3     
   6 S6             0.0077    -0.8612     1.4012 S.o2    
   7 N7            -0.0234     0.0174    -0.0143 N.am    
   8 C8            -0.0231    -0.7068    -1.1980 C.2     
   9 C9             0.4557    -3.4900    -0.2090 C.3     
  10 C10           -1.9712    -3.8296    -0.5957 C.ar    
  11 N11           -2.9585    -4.0401     0.2534 N.ar    
  12 C12           -3.9096    -4.9270     0.0068 C.ar    
  13 C13           -3.8973    -5.6718    -1.1667 C.ar    
  14 C14           -2.8752    -5.4751    -2.0787 C.ar    
  15 C15           -1.8985    -4.5308    -1.7859 C.ar    
  16 O16           -0.4553     0.0438     2.3940 O.2     
  17 O17            1.3184    -1.4077     1.4540 O.2     
  18 F18           -0.8834    -4.3078    -2.6491 F       
  19 N19           -4.9337    -5.1163     0.9337 N.am    
  20 C20           -4.8971    -4.4754     2.1188 C.2     
  21 O21           -3.9272    -3.8071     2.4185 O.2     
  22 C22           -6.0375    -4.5854     3.0549 C.ar    
  23 C23           -5.9941    -3.9196     4.2808 C.ar    
  24 C24           -8.1311    -5.4357     3.5224 C.ar    
  25 N25           -7.0974    -5.3126     2.7200 N.ar    
  26 C26           -7.0741    -4.0334     5.1477 C.ar    
  27 C27           -8.1546    -4.8066     4.7580 C.ar    
  28 C28           -9.3479    -4.9580     5.6658 C.3     
  29 F29           -4.9182    -3.1760     4.6196 F       
  30 F30          -10.2743    -3.9463     5.3909 F       
  31 F31           -9.9425    -6.2059     5.4501 F       
  32 F32           -8.9348    -4.8625     6.9990 F       
  33 H33            0.9706     1.8643    -0.0190 H       
  34 H34           -0.5801     1.8388    -0.8927 H       
  35 H35           -0.5611     1.8332     0.8872 H       
  36 H36            0.7641    -0.9119    -2.9987 H       
  37 H37           -1.4993    -1.8299    -2.0612 H       
  38 H38           -2.2231    -1.7299     1.0709 H       
  39 H39           -1.1667    -2.9193     1.8757 H       
  40 H40            1.2200    -2.7506     0.0301 H       
  41 H41            0.4440    -4.2623     0.5601 H       
  42 H42            0.6779    -3.9428    -1.1753 H       
  43 H43           -4.6750    -6.3947    -1.3640 H       
  44 H44           -2.8398    -6.0393    -2.9989 H       
  45 H45           -5.6726    -5.7093     0.7256 H       
  46 H46           -8.9747    -6.0358     3.2148 H       
  47 H47           -7.0707    -3.5307     6.1036 H       
@<TRIPOS>BOND
   1    1    7 1
   2    1   33 1
   3    1   34 1
   4    1   35 1
   5    2    8 2
   6    2   36 1
   7    3    4 1
   8    3    8 1
   9    3   37 1
  10    4    5 1
  11    4    9 1
  12    4   10 1
  13    5    6 1
  14    5   38 1
  15    5   39 1
  16    6    7 am
  17    6   16 2
  18    6   17 2
  19    7    8 1
  20    9   40 1
  21    9   41 1
  22    9   42 1
  23   10   11 ar
  24   10   15 ar
  25   11   12 ar
  26   12   13 ar
  27   12   19 1
  28   13   14 ar
  29   13   43 1
  30   14   15 ar
  31   14   44 1
  32   15   18 1
  33   19   20 am
  34   19   45 1
  35   20   21 2
  36   20   22 1
  37   22   23 ar
  38   22   25 ar
  39   23   26 ar
  40   23   29 1
  41   24   25 ar
  42   24   27 ar
  43   24   46 1
  44   26   27 ar
  45   26   47 1
  46   27   28 1
  47   28   30 1
  48   28   31 1
  49   28   32 1

#	End of record

