#	Name: ASD01813645
#	Creating user name:	WinNT
#	Creation time:	15. 06. 2019 19:30

#	Modifying user name:	WinNT
#	Modification time:	15. 06. 2019 19:30

#	Program:	/corina/corina34_cracker 3.40 0067  02.08.2006

@<TRIPOS>MOLECULE
ASD01813645
  51   54    0    0    0
SMALL
NO_CHARGES


@<TRIPOS>ATOM
   1 C1             0.0980     1.4754     0.3563 C.ar    
   2 C2             0.0799     0.0882     0.3485 C.ar    
   3 C3             1.2501    -0.6307     0.2178 C.ar    
   4 C4             2.4672     0.0383     0.0918 C.ar    
   5 C5             2.4807     1.4430     0.1002 C.ar    
   6 C6             1.2892     2.1559     0.2332 C.ar    
   7 N7             3.6443    -0.6677    -0.0386 N.pl3   
   8 C8             4.8373    -0.0728    -0.1611 C.2     
   9 C9             4.9774     1.3006    -0.1659 C.2     
  10 C10            3.7745     2.1383    -0.0339 C.2     
  11 O11            3.8448     3.3548    -0.0328 O.2     
  12 C12            6.3052     1.9159    -0.3016 C.2     
  13 O13            6.4289     3.2582    -0.3050 O.3     
  14 O14            7.2919     1.2142    -0.4108 O.2     
  15 C15            3.5871    -2.1316    -0.0427 C.3     
  16 C16            3.4445    -2.6248    -1.4595 C.ar    
  17 C17            4.5596    -2.7691    -2.2634 C.ar    
  18 N18            4.4484    -3.1990    -3.5042 N.ar    
  19 C19            3.2700    -3.5092    -4.0296 C.ar    
  20 C20            2.1039    -3.3873    -3.2752 C.ar    
  21 C21            2.1927    -2.9437    -1.9677 C.ar    
  22 F22            1.2170    -1.9813     0.2123 F       
  23 C23            3.1928    -3.9888    -5.4298 C.ar    
  24 C24            4.3582    -4.1143    -6.1958 C.ar    
  25 C25            4.2750    -4.5648    -7.5062 C.ar    
  26 C26            3.0472    -4.8869    -8.0499 C.ar    
  27 C27            1.8936    -4.7631    -7.2945 C.ar    
  28 C28            1.9609    -4.3226    -5.9887 C.ar    
  29 N29            5.5961    -3.7878    -5.6452 N.3     
  30 C30            6.4973    -4.9478    -5.6513 C.3     
  31 C31            6.2005    -2.6479    -6.3476 C.3     
  32 H32           -0.8269     2.0244     0.4549 H       
  33 H33           -0.8601    -0.4345     0.4461 H       
  34 H34            1.3005     3.2358     0.2392 H       
  35 H35            5.7197    -0.6878    -0.2590 H       
  36 H36            7.3224     3.6165    -0.3967 H       
  37 H37            4.5033    -2.5323     0.3910 H       
  38 H38            2.7314    -2.4634     0.5453 H       
  39 H39            5.5353    -2.5260    -1.8693 H       
  40 H40            1.1453    -3.6394    -3.7041 H       
  41 H41            1.3068    -2.8392    -1.3589 H       
  42 H42            5.1711    -4.6632    -8.1009 H       
  43 H43            2.9864    -5.2367    -9.0699 H       
  44 H44            0.9374    -5.0165    -7.7278 H       
  45 H45            1.0583    -4.2279    -5.4031 H       
  46 H46            6.6488    -5.2849    -6.6767 H       
  47 H47            7.4560    -4.6654    -5.2163 H       
  48 H48            6.0559    -5.7540    -5.0653 H       
  49 H49            5.5432    -1.7820    -6.2678 H       
  50 H50            7.1655    -2.4142    -5.8978 H       
  51 H51            6.3412    -2.9017    -7.3982 H       
@<TRIPOS>BOND
   1    1    2 ar
   2    1    6 ar
   3    1   32 1
   4    2    3 ar
   5    2   33 1
   6    3    4 ar
   7    3   22 1
   8    4    5 ar
   9    4    7 1
  10    5    6 ar
  11    5   10 1
  12    6   34 1
  13    7    8 1
  14    7   15 1
  15    8    9 2
  16    8   35 1
  17    9   10 1
  18    9   12 1
  19   10   11 2
  20   12   13 1
  21   12   14 2
  22   13   36 1
  23   15   16 1
  24   15   37 1
  25   15   38 1
  26   16   17 ar
  27   16   21 ar
  28   17   18 ar
  29   17   39 1
  30   18   19 ar
  31   19   20 ar
  32   19   23 1
  33   20   21 ar
  34   20   40 1
  35   21   41 1
  36   23   24 ar
  37   23   28 ar
  38   24   25 ar
  39   24   29 1
  40   25   26 ar
  41   25   42 1
  42   26   27 ar
  43   26   43 1
  44   27   28 ar
  45   27   44 1
  46   28   45 1
  47   29   30 1
  48   29   31 1
  49   30   46 1
  50   30   47 1
  51   30   48 1
  52   31   49 1
  53   31   50 1
  54   31   51 1

#	End of record

