#	Name: ASD03731078
#	Creating user name:	WinNT
#	Creation time:	15. 06. 2019 20:45

#	Modifying user name:	WinNT
#	Modification time:	15. 06. 2019 20:45

#	Program:	/corina/corina34_cracker 3.40 0067  02.08.2006

@<TRIPOS>MOLECULE
ASD03731078
  73   78    0    0    0
SMALL
NO_CHARGES


@<TRIPOS>ATOM
   1 N1            -0.0178     1.4650     0.0101 N.am    
   2 C2             0.0021    -0.0041     0.0020 C.3     
   3 C3             0.8803    -0.4916     1.1586 C.3     
   4 C4             2.2627     0.1563     1.0525 C.3     
   5 C5             2.1248     1.6768     1.1584 C.3     
   6 C6             1.2607     2.1889     0.0018 C.3     
   7 C7            -1.1868     2.1359     0.0193 C.2     
   8 O8            -2.2375     1.5256     0.0210 O.2     
   9 O9            -1.1902     3.4822     0.0266 O.3     
  10 C10            3.1537    -0.3549     2.1863 C.3     
  11 O11            8.3128     2.5345     2.8639 O.3     
  12 C12            7.7822     3.3237     1.8871 C.ar    
  13 C13            6.6115     2.7705     1.3737 C.ar    
  14 C14            6.3719     1.4928     2.1312 C.3     
  15 C15            7.3051     1.6238     3.3430 C.3     
  16 O16            7.8178     6.3609    -0.2630 O.3     
  17 C17            7.5449     5.1826     0.3633 C.ar    
  18 C18            6.3869     4.6034    -0.1405 C.ar    
  19 C19            5.8686     5.5197    -1.2315 C.3     
  20 C20            7.0994     6.4156    -1.5070 C.3     
  21 C21            5.9232     3.4080     0.3640 C.ar    
  22 C22            8.2397     4.5321     1.3766 C.ar    
  23 N23            4.5103     0.1716     2.0167 N.am    
  24 C24            4.9371     1.3358     2.5452 C.2     
  25 C25            6.6852     0.2751     1.3135 C.ar    
  26 C26            7.8140    -0.1679     0.6609 C.ar    
  27 C27            7.7906    -1.3679    -0.0272 C.ar    
  28 C28            6.6309    -2.1209    -0.0587 C.ar    
  29 C29            5.4976    -1.6812     0.5931 C.ar    
  30 C30            5.5122    -0.4749     1.2890 C.ar    
  31 O31            4.2894     2.1053     3.2230 O.2     
  32 C32            5.4829     4.7216    -2.4786 C.3     
  33 C33            4.6870     6.3527    -0.7305 C.3     
  34 C34           -2.4856     4.1381     0.0364 C.3     
  35 C35           -3.2605     3.7182     1.2870 C.3     
  36 C36           -2.2890     5.6554     0.0437 C.3     
  37 C37           -3.2723     3.7317    -1.2114 C.3     
  38 H38           -1.0118    -0.3840     0.1278 H       
  39 H39            0.4128    -0.3587    -0.9433 H       
  40 H40            0.4202    -0.2139     2.1069 H       
  41 H41            0.9816    -1.5757     1.1066 H       
  42 H42            2.7120    -0.1016     0.0934 H       
  43 H43            1.6530     1.9341     2.1067 H       
  44 H44            3.1119     2.1361     1.1062 H       
  45 H45            1.7740     2.0131    -0.9436 H       
  46 H46            1.0772     3.2560     0.1274 H       
  47 H47            2.7515    -0.0214     3.1430 H       
  48 H48            3.1813    -1.4443     2.1637 H       
  49 H49            7.7447     0.6598     3.5989 H       
  50 H50            6.7747     2.0472     4.1960 H       
  51 H51            6.7914     7.4370    -1.7304 H       
  52 H52            7.7010     6.0063    -2.3186 H       
  53 H53            5.0192     2.9699    -0.0326 H       
  54 H54            9.1443     4.9708     1.7713 H       
  55 H55            8.7185     0.4216     0.6867 H       
  56 H56            8.6757    -1.7157    -0.5389 H       
  57 H57            6.6126    -3.0575    -0.5961 H       
  58 H58            4.5955    -2.2742     0.5632 H       
  59 H59            4.7027     4.0043    -2.2240 H       
  60 H60            5.1142     5.4023    -3.2459 H       
  61 H61            6.3570     4.1897    -2.8543 H       
  62 H62            5.0045     6.9613     0.1161 H       
  63 H63            4.3340     7.0014    -1.5322 H       
  64 H64            3.8807     5.6888    -0.4187 H       
  65 H65           -2.7000     4.0076     2.1759 H       
  66 H66           -4.2329     4.2105     1.2943 H       
  67 H67           -3.4005     2.6372     1.2818 H       
  68 H68           -1.7370     5.9545    -0.8473 H       
  69 H69           -3.2615     6.1477     0.0510 H       
  70 H70           -1.7286     5.9448     0.9326 H       
  71 H71           -3.4124     2.6508    -1.2166 H       
  72 H72           -4.2448     4.2241    -1.2041 H       
  73 H73           -2.7203     4.0309    -2.1024 H       
@<TRIPOS>BOND
   1    1    2 1
   2    1    6 1
   3    1    7 am
   4    2    3 1
   5    2   38 1
   6    2   39 1
   7    3    4 1
   8    3   40 1
   9    3   41 1
  10    4    5 1
  11    4   10 1
  12    4   42 1
  13    5    6 1
  14    5   43 1
  15    5   44 1
  16    6   45 1
  17    6   46 1
  18    7    8 2
  19    7    9 1
  20    9   34 1
  21   10   23 1
  22   10   47 1
  23   10   48 1
  24   11   12 1
  25   11   15 1
  26   12   13 ar
  27   12   22 ar
  28   13   14 1
  29   13   21 ar
  30   14   15 1
  31   14   24 1
  32   14   25 1
  33   15   49 1
  34   15   50 1
  35   16   17 1
  36   16   20 1
  37   17   18 ar
  38   17   22 ar
  39   18   19 1
  40   18   21 ar
  41   19   20 1
  42   19   32 1
  43   19   33 1
  44   20   51 1
  45   20   52 1
  46   21   53 1
  47   22   54 1
  48   23   24 am
  49   23   30 1
  50   24   31 2
  51   25   26 ar
  52   25   30 ar
  53   26   27 ar
  54   26   55 1
  55   27   28 ar
  56   27   56 1
  57   28   29 ar
  58   28   57 1
  59   29   30 ar
  60   29   58 1
  61   32   59 1
  62   32   60 1
  63   32   61 1
  64   33   62 1
  65   33   63 1
  66   33   64 1
  67   34   35 1
  68   34   37 1
  69   34   36 1
  70   35   65 1
  71   35   66 1
  72   35   67 1
  73   36   68 1
  74   36   69 1
  75   36   70 1
  76   37   71 1
  77   37   72 1
  78   37   73 1

#	End of record

