#	Name: ASD05513023
#	Creating user name:	WinNT
#	Creation time:	15. 06. 2019 21:01

#	Modifying user name:	WinNT
#	Modification time:	15. 06. 2019 21:01

#	Program:	/corina/corina34_cracker 3.40 0067  02.08.2006

@<TRIPOS>MOLECULE
ASD05513023
  34   36    0    0    0
SMALL
NO_CHARGES


@<TRIPOS>ATOM
   1 C1            -0.0067     1.4286     0.3278 C.2     
   2 C2             0.0021    -0.0041     0.0020 C.2     
   3 C3             1.1833    -0.6674    -0.1155 C.2     
   4 C4             2.3845    -0.5240     0.7326 C.ar    
   5 C5             3.3415    -1.4130     0.2214 C.ar    
   6 N6             2.8099    -2.0857    -0.8745 N.am    
   7 C7             1.5462    -1.7002    -1.1215 C.2     
   8 C8             2.6811     0.2700     1.8393 C.ar    
   9 C9             3.9253     0.1783     2.4335 C.ar    
  10 C10            4.8713    -0.6982     1.9301 C.ar    
  11 C11            4.5863    -1.4898     0.8343 C.ar    
  12 O12            0.8318    -2.1148    -2.0127 O.2     
  13 O13            1.0364     2.0547     0.3467 O.2     
  14 C14           -1.2806     2.1092     0.6261 C.ar    
  15 Cl15           1.4933     1.3692     2.4677 Cl      
  16 C16           -2.4823     1.3953     0.6000 C.ar    
  17 C17           -3.6686     2.0372     0.8801 C.ar    
  18 C18           -3.6771     3.3884     1.1879 C.ar    
  19 C19           -2.4975     4.1063     1.2174 C.ar    
  20 C20           -1.2933     3.4763     0.9436 C.ar    
  21 O21           -0.1341     4.1800     0.9725 O.3     
  22 C22           -0.2264     5.5695     1.2930 C.3     
  23 H23           -0.9296    -0.5303    -0.1442 H       
  24 H24            3.2890    -2.7518    -1.3918 H       
  25 H25            4.1601     0.7913     3.2912 H       
  26 H26            5.8419    -0.7642     2.3991 H       
  27 H27            5.3336    -2.1693     0.4521 H       
  28 H28           -2.4807     0.3422     0.3604 H       
  29 H29           -4.5965     1.4849     0.8594 H       
  30 H30           -4.6121     3.8832     1.4058 H       
  31 H31           -2.5129     5.1591     1.4579 H       
  32 H32           -0.8552     6.0710     0.5574 H       
  33 H33           -0.6642     5.6853     2.2845 H       
  34 H34            0.7697     6.0119     1.2817 H       
@<TRIPOS>BOND
   1    1    2 1
   2    1   13 2
   3    1   14 1
   4    2    3 2
   5    2   23 1
   6    3    4 1
   7    3    7 1
   8    4    5 ar
   9    4    8 ar
  10    5    6 1
  11    5   11 ar
  12    6    7 am
  13    6   24 1
  14    7   12 2
  15    8    9 ar
  16    8   15 1
  17    9   10 ar
  18    9   25 1
  19   10   11 ar
  20   10   26 1
  21   11   27 1
  22   14   16 ar
  23   14   20 ar
  24   16   17 ar
  25   16   28 1
  26   17   18 ar
  27   17   29 1
  28   18   19 ar
  29   18   30 1
  30   19   20 ar
  31   19   31 1
  32   20   21 1
  33   21   22 1
  34   22   32 1
  35   22   33 1
  36   22   34 1

#	End of record

