#	Name: ASD04882073
#	Creating user name:	WinNT
#	Creation time:	15. 06. 2019 20:54

#	Modifying user name:	WinNT
#	Modification time:	15. 06. 2019 20:54

#	Program:	/corina/corina34_cracker 3.40 0067  02.08.2006

@<TRIPOS>MOLECULE
ASD04882073
  77   81    0    0    0
SMALL
NO_CHARGES


@<TRIPOS>ATOM
   1 N1            -0.1366     1.5560    -0.0347 N.am    
   2 C2            -0.0771     0.1560    -0.0449 C.ar    
   3 C3            -1.2536    -0.5946     0.0292 C.ar    
   4 C4            -1.1961    -1.9836     0.0188 C.ar    
   5 C5             0.0198    -2.6249    -0.0646 C.ar    
   6 C6             1.2003    -1.8802    -0.1390 C.ar    
   7 C7             1.1448    -0.4836    -0.1339 C.ar    
   8 N8            -2.4852     0.0497     0.1141 N.3     
   9 C9            -2.6123     0.7777     1.3844 C.3     
  10 N10           -5.0480     0.5818     1.2341 N.3     
  11 C11           -3.9423     1.5347     1.4046 C.3     
  12 C12            0.8446     2.2680     0.5542 C.2     
  13 O13            1.7274     1.6968     1.1656 O.2     
  14 C14            0.8479     3.7384     0.4573 C.2     
  15 C15            2.5027    -2.5674    -0.2278 C.2     
  16 N16            2.5549    -3.9141    -0.2373 N.am    
  17 O17            3.5292    -1.9188    -0.2925 O.2     
  18 C18           -6.2833     1.2280     1.3192 C.ar    
  19 C19           -7.1950     0.8604     2.3005 C.ar    
  20 C20           -0.1335     4.5855    -0.2361 C.2     
  21 C21            3.8482    -4.5965    -0.3256 C.3     
  22 C22            3.6276    -6.1105    -0.3178 C.3     
  23 C23            0.2769     5.8500    -0.0542 C.2     
  24 O24            1.4027     5.8461     0.6766 O.3     
  25 C25            1.7589     4.5984     0.9972 C.2     
  26 C26           -4.9209    -0.1462    -0.0361 C.3     
  27 C27           -3.5909    -0.9032    -0.0563 C.3     
  28 C28           -8.4155     1.5018     2.3821 C.ar    
  29 C29           -8.7304     2.5086     1.4882 C.ar    
  30 C30           -7.8249     2.8771     0.5099 C.ar    
  31 C31           -6.6006     2.2439     0.4262 C.ar    
  32 C32            2.9668     4.2076     1.8091 C.3     
  33 C33           -6.8531    -0.2375     3.2746 C.3     
  34 C34            4.9784    -6.8232    -0.4100 C.3     
  35 N35            4.7671    -8.2729    -0.4026 N.am    
  36 C36            4.5681    -9.0869    -1.6075 C.3     
  37 C37            3.9654   -10.4193    -1.1097 C.3     
  38 C38            4.4849   -10.4762     0.3455 C.3     
  39 C39            4.7364    -9.0292     0.7082 C.2     
  40 O40            4.8818    -8.6113     1.8374 O.2     
  41 H41           -0.8820     2.0128    -0.4550 H       
  42 H42           -2.1069    -2.5610     0.0765 H       
  43 H43            0.0613    -3.7040    -0.0721 H       
  44 H44            2.0553     0.0944    -0.1916 H       
  45 H45           -2.5838     0.0704     2.2133 H       
  46 H46           -1.7893     1.4857     1.4816 H       
  47 H47           -4.0518     2.0521     2.3577 H       
  48 H48           -3.9597     2.2610     0.5920 H       
  49 H49            1.7360    -4.4316    -0.1857 H       
  50 H50           -1.0061     4.2571    -0.7811 H       
  51 H51            4.3495    -4.3071    -1.2492 H       
  52 H52            4.4664    -4.3151     0.5269 H       
  53 H53            3.1264    -6.4000     0.6058 H       
  54 H54            3.0094    -6.3920    -1.1703 H       
  55 H55           -0.2194     6.7303    -0.4351 H       
  56 H56           -5.7439    -0.8543    -0.1334 H       
  57 H57           -4.9494     0.5611    -0.8651 H       
  58 H58           -3.4814    -1.4206    -1.0095 H       
  59 H59           -3.5735    -1.6296     0.7562 H       
  60 H60           -9.1249     1.2165     3.1449 H       
  61 H61           -9.6857     3.0080     1.5539 H       
  62 H62           -8.0741     3.6637    -0.1870 H       
  63 H63           -5.8938     2.5325    -0.3377 H       
  64 H64            3.5147     5.1039     2.0999 H       
  65 H65            2.6462     3.6719     2.7026 H       
  66 H66            3.6132     3.5642     1.2121 H       
  67 H67           -6.3628     0.1918     4.1483 H       
  68 H68           -7.7661    -0.7463     3.5836 H       
  69 H69           -6.1830    -0.9519     2.7963 H       
  70 H70            5.4796    -6.5338    -1.3336 H       
  71 H71            5.5966    -6.5418     0.4425 H       
  72 H72            3.8761    -8.5906    -2.2879 H       
  73 H73            5.5221    -9.2663    -2.1032 H       
  74 H74            2.8761   -10.3879    -1.1342 H       
  75 H75            4.3430   -11.2599    -1.6919 H       
  76 H76            3.7320   -10.9118     1.0026 H       
  77 H77            5.4130   -11.0454     0.3973 H       
@<TRIPOS>BOND
   1    1    2 1
   2    1   12 am
   3    1   41 1
   4    2    3 ar
   5    2    7 ar
   6    3    4 ar
   7    3    8 1
   8    4    5 ar
   9    4   42 1
  10    5    6 ar
  11    5   43 1
  12    6    7 ar
  13    6   15 1
  14    7   44 1
  15    8    9 1
  16    8   27 1
  17    9   11 1
  18    9   45 1
  19    9   46 1
  20   10   11 1
  21   10   18 1
  22   10   26 1
  23   11   47 1
  24   11   48 1
  25   12   13 2
  26   12   14 1
  27   14   20 1
  28   14   25 2
  29   15   16 am
  30   15   17 2
  31   16   21 1
  32   16   49 1
  33   18   19 ar
  34   18   31 ar
  35   19   28 ar
  36   19   33 1
  37   20   23 2
  38   20   50 1
  39   21   22 1
  40   21   51 1
  41   21   52 1
  42   22   34 1
  43   22   53 1
  44   22   54 1
  45   23   24 1
  46   23   55 1
  47   24   25 1
  48   25   32 1
  49   26   27 1
  50   26   56 1
  51   26   57 1
  52   27   58 1
  53   27   59 1
  54   28   29 ar
  55   28   60 1
  56   29   30 ar
  57   29   61 1
  58   30   31 ar
  59   30   62 1
  60   31   63 1
  61   32   64 1
  62   32   65 1
  63   32   66 1
  64   33   67 1
  65   33   68 1
  66   33   69 1
  67   34   35 1
  68   34   70 1
  69   34   71 1
  70   35   36 1
  71   35   39 am
  72   36   37 1
  73   36   72 1
  74   36   73 1
  75   37   38 1
  76   37   74 1
  77   37   75 1
  78   38   39 1
  79   38   76 1
  80   38   77 1
  81   39   40 2

#	End of record

