#	Name: ASD01810066
#	Creating user name:	WinNT
#	Creation time:	15. 06. 2019 19:23

#	Modifying user name:	WinNT
#	Modification time:	15. 06. 2019 19:23

#	Program:	/corina/corina34_cracker 3.40 0067  02.08.2006

@<TRIPOS>MOLECULE
ASD01810066
  62   66    0    0    0
SMALL
NO_CHARGES


@<TRIPOS>ATOM
   1 C1            -0.2286     1.2924    -0.1526 C.ar    
   2 C2            -0.2304    -0.0935    -0.1547 C.ar    
   3 C3            -1.4239    -0.7881    -0.1139 C.ar    
   4 C4            -2.6242    -0.0964    -0.0701 C.ar    
   5 C5            -2.6236     1.3001    -0.0674 C.ar    
   6 C6            -1.4220     1.9904    -0.1037 C.ar    
   7 N7            -3.9582    -0.4983    -0.0232 N.am    
   8 C8            -4.7318     0.6033     0.0065 C.2     
   9 N9            -3.9559     1.7032    -0.0190 N.am    
  10 C10           -4.4320     3.0886     0.0011 C.3     
  11 C11           -5.3247     3.3406    -1.2172 C.3     
  12 C12           -5.8679     4.7701    -1.1585 C.3     
  13 N13           -6.6359     4.9529     0.0797 N.3     
  14 C14           -5.7880     4.7624     1.2634 C.3     
  15 C15           -5.2425     3.3326     1.2771 C.3     
  16 O16           -5.9479     0.6045     0.0496 O.2     
  17 C17           -7.2878     6.2690     0.1054 C.3     
  18 C18           -8.1769     6.3755     1.3475 C.3     
  19 C19           -8.8054     7.7698     1.4009 C.3     
  20 N20           -7.7450     8.7846     1.4475 N.3     
  21 C21           -6.9071     8.7328     0.2427 C.3     
  22 C22           -6.2219     7.3672     0.1546 C.3     
  23 C23           -8.3094    10.1273     1.6389 C.3     
  24 C24           -7.2194    11.0733     2.0726 C.ar    
  25 C25           -6.7976    11.0847     3.3887 C.ar    
  26 C26           -5.7976    11.9525     3.7867 C.ar    
  27 C27           -5.2194    12.8084     2.8682 C.ar    
  28 C28           -5.6407    12.7963     1.5515 C.ar    
  29 C29           -6.6374    11.9257     1.1527 C.ar    
  30 F30            0.9429     1.9641    -0.1927 F       
  31 C31           -7.4280    10.1515     4.3902 C.3     
  32 F32           -6.7825    10.2864     5.6240 F       
  33 F33           -8.7826    10.4695     4.5354 F       
  34 F34           -7.3042     8.8325     3.9407 F       
  35 H35            0.7048    -0.6326    -0.1888 H       
  36 H36           -1.4217    -1.8681    -0.1164 H       
  37 H37           -1.4177     3.0704    -0.1017 H       
  38 H38           -4.2751    -1.4150    -0.0137 H       
  39 H39           -3.5795     3.7672    -0.0254 H       
  40 H40           -4.7417     3.2099    -2.1288 H       
  41 H41           -6.1556     2.6351    -1.2117 H       
  42 H42           -5.0370     5.4754    -1.1780 H       
  43 H43           -6.5153     4.9481    -2.0171 H       
  44 H44           -4.9575     5.4677     1.2326 H       
  45 H45           -6.3775     4.9348     2.1639 H       
  46 H46           -6.0720     2.6270     1.3218 H       
  47 H47           -4.6007     3.1963     2.1475 H       
  48 H48           -7.8970     6.3913    -0.7902 H       
  49 H49           -8.9640     5.6232     1.2971 H       
  50 H50           -7.5744     6.2134     2.2412 H       
  51 H51           -9.4188     7.9260     0.5136 H       
  52 H52           -9.4278     7.8537     2.2918 H       
  53 H53           -7.5294     8.8844    -0.6393 H       
  54 H54           -6.1508     9.5161     0.2923 H       
  55 H55           -5.5887     7.2207     1.0296 H       
  56 H56           -5.6124     7.3234    -0.7479 H       
  57 H57           -8.7418    10.4767     0.7013 H       
  58 H58           -9.0841    10.0901     2.4047 H       
  59 H59           -5.4685    11.9620     4.8153 H       
  60 H60           -4.4388    13.4868     3.1792 H       
  61 H61           -5.1891    13.4653     0.8339 H       
  62 H62           -6.9665    11.9162     0.1241 H       
@<TRIPOS>BOND
   1    1    2 ar
   2    1   30 1
   3    1    6 ar
   4    2    3 ar
   5    2   35 1
   6    3    4 ar
   7    3   36 1
   8    4    5 ar
   9    4    7 1
  10    5    6 ar
  11    5    9 1
  12    6   37 1
  13    7    8 am
  14    7   38 1
  15    8    9 am
  16    8   16 2
  17    9   10 1
  18   10   11 1
  19   10   15 1
  20   10   39 1
  21   11   12 1
  22   11   40 1
  23   11   41 1
  24   12   13 1
  25   12   42 1
  26   12   43 1
  27   13   14 1
  28   13   17 1
  29   14   15 1
  30   14   44 1
  31   14   45 1
  32   15   46 1
  33   15   47 1
  34   17   18 1
  35   17   22 1
  36   17   48 1
  37   18   19 1
  38   18   49 1
  39   18   50 1
  40   19   20 1
  41   19   51 1
  42   19   52 1
  43   20   21 1
  44   20   23 1
  45   21   22 1
  46   21   53 1
  47   21   54 1
  48   22   55 1
  49   22   56 1
  50   23   24 1
  51   23   57 1
  52   23   58 1
  53   24   25 ar
  54   24   29 ar
  55   25   26 ar
  56   25   31 1
  57   26   27 ar
  58   26   59 1
  59   27   28 ar
  60   27   60 1
  61   28   29 ar
  62   28   61 1
  63   29   62 1
  64   31   32 1
  65   31   33 1
  66   31   34 1

#	End of record

