#	Name: ASD01884797
#	Creating user name:	WinNT
#	Creation time:	15. 06. 2019 19:48

#	Modifying user name:	WinNT
#	Modification time:	15. 06. 2019 19:48

#	Program:	/corina/corina34_cracker 3.40 0067  02.08.2006

@<TRIPOS>MOLECULE
ASD01884797
  46   49    0    0    0
SMALL
NO_CHARGES


@<TRIPOS>ATOM
   1 C1            -1.1657     0.5366     0.9397 C.3     
   2 C2            -0.5722    -0.8714     0.8623 C.3     
   3 H3            -1.2588    -1.5815     1.3232 H       
   4 C4            -0.3514    -1.2522    -0.6014 C.3     
   5 N5             0.4887    -2.4355    -0.7515 N.am    
   6 C6             1.5781    -2.6365     0.0288 C.2     
   7 O7             2.3907    -3.5075    -0.2157 O.2     
   8 C8             1.7238    -1.7401     1.1905 C.2     
   9 C9             2.7711    -1.5452     2.0648 C.2     
  10 C10            2.3642    -0.5492     2.9766 C.2     
  11 N11            1.1450    -0.1740     2.6697 N.2     
  12 N12            0.7097    -0.9012     1.5699 N.pl3   
  13 C13            4.0712    -2.2460     2.0501 C.2     
  14 O14            4.2972    -3.0901     1.2048 O.2     
  15 N15            5.0069    -1.9498     2.9737 N.am    
  16 C16            6.1986    -2.6805     3.0212 C.ar    
  17 C17            6.8127    -2.9482     4.2378 C.ar    
  18 N18            7.9355    -3.6367     4.2880 N.ar    
  19 C19            8.5186    -4.0963     3.1985 C.ar    
  20 C20            7.9674    -3.8705     1.9479 C.ar    
  21 F21            8.5728    -4.3463     0.8378 F       
  22 C22            6.7833    -3.1549     1.8497 C.ar    
  23 C23            0.1620    -3.3849    -1.7244 C.ar    
  24 C24           -0.6479    -4.4652    -1.3985 C.ar    
  25 C25           -0.9687    -5.4013    -2.3619 C.ar    
  26 C26           -0.4841    -5.2642    -3.6498 C.ar    
  27 C27            0.3229    -4.1901    -3.9775 C.ar    
  28 C28            0.6421    -3.2469    -3.0206 C.ar    
  29 C29           -0.8357    -6.2878    -4.6984 C.3     
  30 F30           -2.0123    -5.9027    -5.3499 F       
  31 F31            0.2046    -6.3782    -5.6293 F       
  32 F32           -1.0260    -7.5329    -4.0893 F       
  33 H33           -0.4788     1.2463     0.4786 H       
  34 H34           -2.1192     0.5586     0.4119 H       
  35 H35           -1.3220     0.8081     1.9837 H       
  36 H36           -1.3187    -1.4456    -1.0650 H       
  37 H37            0.1227    -0.4160    -1.1153 H       
  38 H38            2.9572    -0.1601     3.7910 H       
  39 H39            4.8539    -1.2300     3.6056 H       
  40 H40            6.3655    -2.5881     5.1525 H       
  41 H41            9.4384    -4.6560     3.2822 H       
  42 H42            6.3280    -2.9673     0.8885 H       
  43 H43           -1.0262    -4.5733    -0.3926 H       
  44 H44           -1.5984    -6.2415    -2.1091 H       
  45 H45            0.7001    -4.0861    -4.9842 H       
  46 H46            1.2684    -2.4057    -3.2784 H       
@<TRIPOS>BOND
   1    1    2 1
   2    1   33 1
   3    1   34 1
   4    1   35 1
   5    2    3 1
   6    2   12 1
   7    2    4 1
   8    4    5 1
   9    4   36 1
  10    4   37 1
  11    5    6 am
  12    5   23 1
  13    6    7 2
  14    6    8 1
  15    8   12 1
  16    8    9 2
  17    9   10 1
  18    9   13 1
  19   10   11 2
  20   10   38 1
  21   11   12 1
  22   13   14 2
  23   13   15 am
  24   15   16 1
  25   15   39 1
  26   16   22 ar
  27   16   17 ar
  28   17   18 ar
  29   17   40 1
  30   18   19 ar
  31   19   20 ar
  32   19   41 1
  33   20   21 1
  34   20   22 ar
  35   22   42 1
  36   23   28 ar
  37   23   24 ar
  38   24   25 ar
  39   24   43 1
  40   25   26 ar
  41   25   44 1
  42   26   27 ar
  43   26   29 1
  44   27   28 ar
  45   27   45 1
  46   28   46 1
  47   29   30 1
  48   29   31 1
  49   29   32 1

#	End of record

