#	Name: ASD00170804
#	Creating user name:	WinNT
#	Creation time:	15. 06. 2019 18:32

#	Modifying user name:	WinNT
#	Modification time:	15. 06. 2019 18:32

#	Program:	/corina/corina34_cracker 3.40 0067  02.08.2006

@<TRIPOS>MOLECULE
ASD00170804
  38   41    0    0    0
SMALL
NO_CHARGES


@<TRIPOS>ATOM
   1 C1             0.6322     0.4342    -1.1651 C.2     
   2 N2             0.0278     0.0151    -0.0387 N.am    
   3 C3             0.6686     0.4707     1.0528 C.2     
   4 C4             1.8249     1.2810     0.6162 C.ar    
   5 C5             2.8198     1.9832     1.2774 C.ar    
   6 C6             3.7856     2.6582     0.5473 C.ar    
   7 C7             3.7629     2.6355    -0.8346 C.ar    
   8 C8             2.7737     1.9377    -1.5098 C.ar    
   9 C9             1.8018     1.2578    -0.7934 C.ar    
  10 O10            0.2790     0.1749    -2.2977 O.2     
  11 O11            0.3503     0.2528     2.2043 O.2     
  12 C12           -1.1080    -0.7827    -0.0069 C.2     
  13 C13           -1.1024    -2.1532    -0.0911 C.2     
  14 C14           -2.4307    -2.7230    -0.0312 C.2     
  15 C15           -3.3843    -1.8113     0.0925 C.2     
  16 S16           -2.7007    -0.1963     0.1493 S.3     
  17 C17           -2.7024    -4.2036    -0.1028 C.3     
  18 C18            0.1178    -2.9526    -0.2274 C.2     
  19 C19            0.8721    -3.3616     0.9767 C.ar    
  20 C20            2.0973    -4.0183     0.8468 C.ar    
  21 C21            2.7961    -4.3973     1.9735 C.ar    
  22 C22            2.2848    -4.1277     3.2323 C.ar    
  23 C23            1.0698    -3.4765     3.3675 C.ar    
  24 C24            0.3646    -3.0875     2.2483 C.ar    
  25 O25            0.5107    -3.2801    -1.3321 O.2     
  26 Cl26           3.1701    -4.6084     4.6461 Cl      
  27 H27            2.8423     2.0049     2.3569 H       
  28 H28            4.5612     3.2061     1.0619 H       
  29 H29            4.5210     3.1654    -1.3922 H       
  30 H30            2.7605     1.9239    -2.5897 H       
  31 H31           -4.4396    -2.0326     0.1538 H       
  32 H32           -2.6058    -4.6392     0.8916 H       
  33 H33           -3.7131    -4.3698    -0.4757 H       
  34 H34           -1.9850    -4.6725    -0.7762 H       
  35 H35            2.4968    -4.2293    -0.1342 H       
  36 H36            3.7438    -4.9057     1.8743 H       
  37 H37            0.6760    -3.2693     4.3516 H       
  38 H38           -0.5805    -2.5758     2.3549 H       
@<TRIPOS>BOND
   1    1    2 am
   2    1    9 1
   3    1   10 2
   4    2    3 am
   5    2   12 1
   6    3    4 1
   7    3   11 2
   8    4    5 ar
   9    4    9 ar
  10    5    6 ar
  11    5   27 1
  12    6    7 ar
  13    6   28 1
  14    7    8 ar
  15    7   29 1
  16    8    9 ar
  17    8   30 1
  18   12   13 2
  19   12   16 1
  20   13   14 1
  21   13   18 1
  22   14   15 2
  23   14   17 1
  24   15   16 1
  25   15   31 1
  26   17   32 1
  27   17   33 1
  28   17   34 1
  29   18   19 1
  30   18   25 2
  31   19   20 ar
  32   19   24 ar
  33   20   21 ar
  34   20   35 1
  35   21   22 ar
  36   21   36 1
  37   22   23 ar
  38   22   26 1
  39   23   24 ar
  40   23   37 1
  41   24   38 1

#	End of record

