#	Name: ASD01148160
#	Creating user name:	WinNT
#	Creation time:	15. 06. 2019 19:02

#	Modifying user name:	WinNT
#	Modification time:	15. 06. 2019 19:02

#	Program:	/corina/corina34_cracker 3.40 0067  02.08.2006

@<TRIPOS>MOLECULE
ASD01148160
  14   14    0    0    0
SMALL
NO_CHARGES


@<TRIPOS>ATOM
   1 C1            -0.0167     1.3788     0.0096 C.ar    
   2 C2             0.0021    -0.0041     0.0020 C.ar    
   3 C3             1.2340    -0.6652    -0.0133 C.ar    
   4 C4             2.3998     0.1106    -0.0204 C.ar    
   5 C5             2.2878     1.4888    -0.0119 C.ar    
   6 N6             1.1057     2.0716     0.0026 N.ar    
   7 C7             1.3040    -2.1432    -0.0215 C.2     
   8 O8             2.3831    -2.7000    -0.0348 O.2     
   9 O9             0.1708    -2.8710    -0.0141 O.3     
  10 Cl10           3.9620    -0.6464    -0.0388 Cl      
  11 Cl11          -1.5384     2.2142     0.0213 Cl      
  12 H12           -0.9209    -0.5648     0.0082 H       
  13 H13            3.1810     2.0959    -0.0172 H       
  14 H14            0.2670    -3.8332    -0.0199 H       
@<TRIPOS>BOND
   1    1    2 ar
   2    1    6 ar
   3    1   11 1
   4    2    3 ar
   5    2   12 1
   6    3    4 ar
   7    3    7 1
   8    4    5 ar
   9    4   10 1
  10    5    6 ar
  11    5   13 1
  12    7    8 2
  13    7    9 1
  14    9   14 1

#	End of record

