#	Name: ASD02560223
#	Creating user name:	WinNT
#	Creation time:	15. 06. 2019 20:24

#	Modifying user name:	WinNT
#	Modification time:	15. 06. 2019 20:24

#	Program:	/corina/corina34_cracker 3.40 0067  02.08.2006

@<TRIPOS>MOLECULE
ASD02560223
  68   72    0    0    0
SMALL
NO_CHARGES


@<TRIPOS>ATOM
   1 Br1            2.1638     3.8122    -1.3133 Br      
   2 N2             0.2977     1.9542    -0.2651 N.2     
   3 N3             0.6430     0.7741    -0.3804 N.2     
   4 C4             1.4142     2.7923     0.1910 C.3     
   5 N5             2.4180     1.8324     0.7161 N.3     
   6 C6             2.0565     0.5968    -0.0236 C.3     
   7 S7             2.2619    -0.8587     1.0395 S.3     
   8 C8             1.1257    -0.5241     2.4134 C.3     
   9 C9             1.1816    -1.6619     3.4000 C.2     
  10 O10            1.9156    -2.6056     3.1962 O.2     
  11 N11            0.4158    -1.6308     4.5086 N.am    
  12 C12            3.7121     2.2417     0.4022 C.ar    
  13 C13            0.3833    -2.7314     5.3649 C.ar    
  14 C14           -0.7452    -2.9721     6.1445 C.ar    
  15 C15           -0.7800    -4.0582     6.9910 C.ar    
  16 C16            0.3189    -4.9187     7.0663 C.ar    
  17 C17            1.4492    -4.6738     6.2824 C.ar    
  18 C18            1.4756    -3.5894     5.4340 C.ar    
  19 Cl19          -2.1089    -1.9020     6.0501 Cl      
  20 C20            0.2855    -6.0833     7.9724 C.2     
  21 C21            4.2340     3.4342     0.9479 C.ar    
  22 C22            4.4969     1.4827    -0.4399 C.ar    
  23 C23            5.7906     1.8827    -0.7597 C.ar    
  24 C24            6.3173     3.0311    -0.2517 C.ar    
  25 C25            5.5526     3.8308     0.6145 C.ar    
  26 C26            3.4716     4.2340     1.8134 C.ar    
  27 C27            6.0702     5.0215     1.1534 C.ar    
  28 C28            5.3020     5.7725     1.9889 C.ar    
  29 C29            4.0072     5.3784     2.3207 C.ar    
  30 C30            7.7215     3.4412    -0.6137 C.3     
  31 N31            0.7671    -7.2724     7.5595 N.am    
  32 O32           -0.1764    -5.9699     9.0914 O.2     
  33 C33            0.6445    -8.4653     8.4084 C.3     
  34 C34            1.4194    -7.4018     6.2493 C.3     
  35 C35            0.7381    -8.5301     5.4687 C.3     
  36 C36            0.7559    -9.8092     6.3087 C.3     
  37 C37           -0.0265    -9.5796     7.5991 C.3     
  38 O38            0.1499   -10.8721     5.5704 O.3     
  39 C39            8.6899     2.9516     0.4649 C.3     
  40 H40            1.0844     3.4668     0.9811 H       
  41 H41            2.6657     0.5005    -0.9223 H       
  42 H42            1.4179     0.4015     2.9094 H       
  43 H43            0.1103    -0.4256     2.0295 H       
  44 H44           -0.1126    -0.8430     4.7111 H       
  45 H45           -1.6551    -4.2445     7.5958 H       
  46 H46            2.2999    -5.3369     6.3386 H       
  47 H47            2.3492    -3.4001     4.8277 H       
  48 H48            4.1030     0.5670    -0.8558 H       
  49 H49            6.3870     1.2722    -1.4215 H       
  50 H50            2.4650     3.9433     2.0753 H       
  51 H51            7.0726     5.3385     0.9059 H       
  52 H52            5.7021     6.6868     2.4016 H       
  53 H53            3.4180     5.9925     2.9857 H       
  54 H54            7.9929     3.0004    -1.5729 H       
  55 H55            7.7758     4.5275    -0.6847 H       
  56 H56            1.6349    -8.7907     8.7268 H       
  57 H57            0.0361    -8.2312     9.2820 H       
  58 H58            1.3221    -6.4660     5.6988 H       
  59 H59            2.4742    -7.6386     6.3881 H       
  60 H60           -0.2932    -8.2515     5.2520 H       
  61 H61            1.2732    -8.7008     4.5345 H       
  62 H62            1.7864   -10.0736     6.5458 H       
  63 H63           -0.0346   -10.4968     8.1878 H       
  64 H64           -1.0500    -9.2926     7.3578 H       
  65 H65            0.1264   -11.7156     6.0427 H       
  66 H66            9.7056     3.2482     0.2031 H       
  67 H67            8.4185     3.3924     1.4241 H       
  68 H68            8.6356     1.8652     0.5359 H       
@<TRIPOS>BOND
   1    1    4 1
   2    2    3 2
   3    2    4 1
   4    3    6 1
   5    4    5 1
   6    4   40 1
   7    5    6 1
   8    5   12 1
   9    6    7 1
  10    6   41 1
  11    7    8 1
  12    8    9 1
  13    8   42 1
  14    8   43 1
  15    9   10 2
  16    9   11 am
  17   11   13 1
  18   11   44 1
  19   12   21 ar
  20   12   22 ar
  21   13   14 ar
  22   13   18 ar
  23   14   15 ar
  24   14   19 1
  25   15   16 ar
  26   15   45 1
  27   16   17 ar
  28   16   20 1
  29   17   18 ar
  30   17   46 1
  31   18   47 1
  32   20   31 am
  33   20   32 2
  34   21   25 ar
  35   21   26 ar
  36   22   23 ar
  37   22   48 1
  38   23   24 ar
  39   23   49 1
  40   24   25 ar
  41   24   30 1
  42   25   27 ar
  43   26   29 ar
  44   26   50 1
  45   27   28 ar
  46   27   51 1
  47   28   29 ar
  48   28   52 1
  49   29   53 1
  50   30   39 1
  51   30   54 1
  52   30   55 1
  53   31   33 1
  54   31   34 1
  55   33   37 1
  56   33   56 1
  57   33   57 1
  58   34   35 1
  59   34   58 1
  60   34   59 1
  61   35   36 1
  62   35   60 1
  63   35   61 1
  64   36   37 1
  65   36   38 1
  66   36   62 1
  67   37   63 1
  68   37   64 1
  69   38   65 1
  70   39   66 1
  71   39   67 1
  72   39   68 1

#	End of record

