#	Name: ASD04230184
#	Creating user name:	WinNT
#	Creation time:	15. 06. 2019 20:48

#	Modifying user name:	WinNT
#	Modification time:	15. 06. 2019 20:48

#	Program:	/corina/corina34_cracker 3.40 0067  02.08.2006

@<TRIPOS>MOLECULE
ASD04230184
  36   39    0    0    0
SMALL
NO_CHARGES


@<TRIPOS>ATOM
   1 C1             0.0770     1.3677     0.8489 C.2     
   2 C2             0.0736    -0.0870     0.6270 C.ar    
   3 C3            -1.1610    -0.7665     0.5525 C.ar    
   4 C4            -2.3781    -0.0590     0.6890 C.ar    
   5 C5            -2.3660     1.3410     0.9020 C.2     
   6 C6            -1.1616     2.0443     0.9872 C.2     
   7 C7             1.2601    -0.8002     0.4904 C.ar    
   8 C8             1.2305    -2.1697     0.2825 C.ar    
   9 C9             0.0349    -2.8513     0.2063 C.ar    
  10 C10           -1.1769    -2.1625     0.3397 C.ar    
  11 C11           -2.4208    -2.8364     0.2660 C.ar    
  12 C12           -3.6033    -2.1188     0.4033 C.ar    
  13 C13           -3.5898    -0.7569     0.6107 C.ar    
  14 O14            1.1292     1.9814     0.9179 O.2     
  15 N15           -3.5559     2.0168     1.0326 N.pl3   
  16 S16           -2.4688    -4.5776     0.0004 S.3     
  17 C17           -4.1993    -4.8648     0.1663 C.ar    
  18 C18           -5.0160    -4.8667    -0.9582 C.ar    
  19 C19           -6.3717    -5.0920    -0.8244 C.ar    
  20 C20           -6.9171    -5.3157     0.4267 C.ar    
  21 C21           -6.1075    -5.3140     1.5481 C.ar    
  22 C22           -4.7500    -5.0955     1.4212 C.ar    
  23 C23           -1.1784     3.4597     1.2035 C.1     
  24 N24           -1.1917     4.5826     1.3752 N.1     
  25 H25            2.2074    -0.2847     0.5463 H       
  26 H26            2.1588    -2.7117     0.1781 H       
  27 H27            0.0328    -3.9189     0.0433 H       
  28 H28           -4.5487    -2.6377     0.3462 H       
  29 H29           -4.5225    -0.2224     0.7145 H       
  30 H30           -4.3959     1.5347     0.9786 H       
  31 H31           -3.5555     2.9757     1.1787 H       
  32 H32           -4.5908    -4.6918    -1.9354 H       
  33 H33           -7.0070    -5.0933    -1.6978 H       
  34 H34           -7.9778    -5.4917     0.5284 H       
  35 H35           -6.5369    -5.4883     2.5236 H       
  36 H36           -4.1183    -5.0944     2.2972 H       
@<TRIPOS>BOND
   1    1    2 1
   2    1   14 2
   3    1    6 1
   4    2    3 ar
   5    2    7 ar
   6    3    4 ar
   7    3   10 ar
   8    4    5 1
   9    4   13 ar
  10    5    6 2
  11    5   15 1
  12    6   23 1
  13    7    8 ar
  14    7   25 1
  15    8    9 ar
  16    8   26 1
  17    9   10 ar
  18    9   27 1
  19   10   11 ar
  20   11   12 ar
  21   11   16 1
  22   12   13 ar
  23   12   28 1
  24   13   29 1
  25   15   30 1
  26   15   31 1
  27   16   17 1
  28   17   18 ar
  29   17   22 ar
  30   18   19 ar
  31   18   32 1
  32   19   20 ar
  33   19   33 1
  34   20   21 ar
  35   20   34 1
  36   21   22 ar
  37   21   35 1
  38   22   36 1
  39   23   24 3

#	End of record

