#	Name: ASD01913022
#	Creating user name:	WinNT
#	Creation time:	15. 06. 2019 20:00

#	Modifying user name:	WinNT
#	Modification time:	15. 06. 2019 20:00

#	Program:	/corina/corina34_cracker 3.40 0067  02.08.2006

@<TRIPOS>MOLECULE
ASD01913022
  32   34    0    0    0
SMALL
NO_CHARGES


@<TRIPOS>ATOM
   1 C1            -0.0173     1.4278     0.0099 C.ar    
   2 C2             0.0021    -0.0041     0.0020 C.1     
   3 C3             0.0180    -1.1779    -0.0044 C.1     
   4 C4             0.0374    -2.6098    -0.0123 C.ar    
   5 C5            -1.1612    -3.3283    -0.0047 C.ar    
   6 C6             1.2550    -3.2954    -0.0335 C.ar    
   7 C7             1.2658    -4.6745    -0.0414 C.ar    
   8 C8             0.0750    -5.3792    -0.0285 C.ar    
   9 C9            -1.1346    -4.7072    -0.0129 C.ar    
  10 N10            1.1271     2.1025     0.0026 N.ar    
  11 C11            1.1588     3.4284     0.0089 C.ar    
  12 C12           -0.0218     4.1563     0.0286 C.ar    
  13 C13           -1.2380     3.4875     0.0347 C.ar    
  14 C14           -1.2386     2.1037     0.0194 C.ar    
  15 O15            2.3700     4.0412    -0.0115 O.3     
  16 C16            2.4299     5.4155     0.3715 C.3     
  17 C17            1.3482     6.1823    -0.3998 C.3     
  18 C18           -0.0204     5.6630     0.0486 C.3     
  19 O19           -1.0285     6.1514    -0.8386 O.3     
  20 H20           -2.1059    -2.8051     0.0078 H       
  21 H21            2.1851    -2.7466    -0.0439 H       
  22 H22            2.2060    -5.2057    -0.0581 H       
  23 H23            0.0896    -6.4591    -0.0348 H       
  24 H24           -2.0600    -5.2638    -0.0029 H       
  25 H25           -2.1675     4.0373     0.0468 H       
  26 H26           -2.1690     1.5555     0.0231 H       
  27 H27            2.2494     5.5054     1.4427 H       
  28 H28            3.4115     5.8214     0.1270 H       
  29 H29            1.4266     7.2474    -0.1817 H       
  30 H30            1.4719     6.0157    -1.4699 H       
  31 H31           -0.2276     6.0126     1.0600 H       
  32 H32           -1.9235     5.8615    -0.6148 H       
@<TRIPOS>BOND
   1    1    2 1
   2    1   10 ar
   3    1   14 ar
   4    2    3 3
   5    3    4 1
   6    4    5 ar
   7    4    6 ar
   8    5    9 ar
   9    5   20 1
  10    6    7 ar
  11    6   21 1
  12    7    8 ar
  13    7   22 1
  14    8    9 ar
  15    8   23 1
  16    9   24 1
  17   10   11 ar
  18   11   12 ar
  19   11   15 1
  20   12   13 ar
  21   12   18 1
  22   13   14 ar
  23   13   25 1
  24   14   26 1
  25   15   16 1
  26   16   17 1
  27   16   27 1
  28   16   28 1
  29   17   18 1
  30   17   29 1
  31   17   30 1
  32   18   19 1
  33   18   31 1
  34   19   32 1

#	End of record

