#	Name: ASD01813962
#	Creating user name:	WinNT
#	Creation time:	15. 06. 2019 19:31

#	Modifying user name:	WinNT
#	Modification time:	15. 06. 2019 19:31

#	Program:	/corina/corina34_cracker 3.40 0067  02.08.2006

@<TRIPOS>MOLECULE
ASD01813962
  62   65    0    0    0
SMALL
NO_CHARGES


@<TRIPOS>ATOM
   1 C1            -0.0173     1.4248     0.0099 C.3     
   2 O2             0.0021    -0.0041     0.0020 O.3     
   3 C3             0.6247    -0.6173     1.0396 C.ar    
   4 C4             1.9781    -0.9096     0.9653 C.ar    
   5 C5             2.7599    -0.5456    -0.2706 C.3     
   6 C6             2.6107    -1.5335     2.0225 C.ar    
   7 C7             4.0821    -1.8474     1.9353 C.3     
   8 C8             1.9009    -1.8720     3.1626 C.ar    
   9 C9             2.6034    -2.5526     4.3091 C.3     
  10 C10            3.2471    -1.5142     5.1914 C.ar    
  11 C11            4.5421    -1.1007     4.9386 C.ar    
  12 C12            5.1347    -0.1491     5.7455 C.ar    
  13 C13            4.4287     0.3923     6.8112 C.ar    
  14 C14            3.1287    -0.0248     7.0626 C.ar    
  15 C15            2.5394    -0.9726     6.2488 C.ar    
  16 N16            5.0279     1.3583     7.6326 N.pl3   
  17 C17            4.4511     1.9619     8.7076 C.2     
  18 C18            5.3786     2.8165     9.1994 C.2     
  19 N19            6.4578     2.6981     8.4178 N.2     
  20 N20            6.2209     1.8244     7.5042 N.2     
  21 C21            0.5551    -1.5889     3.2536 C.ar    
  22 C22           -0.0960    -0.9530     2.1941 C.ar    
  23 C23           -1.5350    -0.6411     2.2874 C.2     
  24 O24           -2.0992    -0.0913     1.3613 O.2     
  25 N25           -2.2241    -0.9657     3.3992 N.am    
  26 C26           -3.6530    -0.6560     3.4919 C.3     
  27 H27           -3.8553     0.2833     2.9772 H       
  28 C28           -4.4617    -1.7793     2.8398 C.3     
  29 C29           -5.9540    -1.4559     2.9366 C.3     
  30 C30           -6.3536    -1.3276     4.4079 C.3     
  31 C31           -5.5450    -0.2042     5.0599 C.3     
  32 C32           -4.0527    -0.5277     4.9632 C.3     
  33 H33           -3.8504    -1.4670     5.4779 H       
  34 O34           -3.2974     0.5215     5.5722 O.3     
  35 H35            1.0053     1.8021     0.0021 H       
  36 H36           -0.5445     1.7859    -0.8732 H       
  37 H37           -0.5275     1.7763     0.9067 H       
  38 H38            3.1688     0.4586    -0.1592 H       
  39 H39            3.5746    -1.2565    -0.4077 H       
  40 H40            2.1016    -0.5756    -1.1389 H       
  41 H41            4.6566    -1.0065     2.3237 H       
  42 H42            4.2990    -2.7385     2.5243 H       
  43 H43            4.3549    -2.0242     0.8950 H       
  44 H44            1.8803    -3.1251     4.8899 H       
  45 H45            3.3691    -3.2233     3.9193 H       
  46 H46            5.0909    -1.5224     4.1095 H       
  47 H47            6.1463     0.1732     5.5478 H       
  48 H48            2.5771     0.3946     7.8910 H       
  49 H49            1.5266    -1.2943     6.4412 H       
  50 H50            3.4553     1.7936     9.0903 H       
  51 H51            5.2687     3.4668    10.0546 H       
  52 H52            0.0056    -1.8547     4.1445 H       
  53 H53           -1.7741    -1.4044     4.1381 H       
  54 H54           -4.1769    -1.8707     1.7917 H       
  55 H55           -4.2594    -2.7186     3.3545 H       
  56 H56           -6.1563    -0.5166     2.4219 H       
  57 H57           -6.5301    -2.2561     2.4721 H       
  58 H58           -7.4168    -1.0971     4.4768 H       
  59 H59           -6.1513    -2.2668     4.9226 H       
  60 H60           -5.7473     0.7350     4.5452 H       
  61 H61           -5.8297    -0.1128     6.1081 H       
  62 H62           -3.4994     0.6595     6.5077 H       
@<TRIPOS>BOND
   1    1    2 1
   2    1   35 1
   3    1   36 1
   4    1   37 1
   5    2    3 1
   6    3   22 ar
   7    3    4 ar
   8    4    5 1
   9    4    6 ar
  10    5   38 1
  11    5   39 1
  12    5   40 1
  13    6    7 1
  14    6    8 ar
  15    7   41 1
  16    7   42 1
  17    7   43 1
  18    8    9 1
  19    8   21 ar
  20    9   10 1
  21    9   44 1
  22    9   45 1
  23   10   15 ar
  24   10   11 ar
  25   11   12 ar
  26   11   46 1
  27   12   13 ar
  28   12   47 1
  29   13   14 ar
  30   13   16 1
  31   14   15 ar
  32   14   48 1
  33   15   49 1
  34   16   20 1
  35   16   17 1
  36   17   18 2
  37   17   50 1
  38   18   19 1
  39   18   51 1
  40   19   20 2
  41   21   22 ar
  42   21   52 1
  43   22   23 1
  44   23   24 2
  45   23   25 am
  46   25   26 1
  47   25   53 1
  48   26   27 1
  49   26   32 1
  50   26   28 1
  51   28   29 1
  52   28   54 1
  53   28   55 1
  54   29   30 1
  55   29   56 1
  56   29   57 1
  57   30   31 1
  58   30   58 1
  59   30   59 1
  60   31   32 1
  61   31   60 1
  62   31   61 1
  63   32   33 1
  64   32   34 1
  65   34   62 1

#	End of record

