#	Name: ASD01001018
#	Creating user name:	WinNT
#	Creation time:	15. 06. 2019 18:54

#	Modifying user name:	WinNT
#	Modification time:	15. 06. 2019 18:54

#	Program:	/corina/corina34_cracker 3.40 0067  02.08.2006

@<TRIPOS>MOLECULE
ASD01001018
  49   50    0    0    0
SMALL
NO_CHARGES


@<TRIPOS>ATOM
   1 C1             2.5761     1.0695     0.9438 C.ar    
   2 C2             2.3147    -0.2877     0.9174 C.ar    
   3 C3             2.0000     1.9028     0.0033 C.ar    
   4 C4             1.4771    -0.8115    -0.0495 C.ar    
   5 C5             1.1624     1.3789    -0.9636 C.ar    
   6 C6             0.9006     0.0219    -0.9897 C.ar    
   7 C7             1.1928    -2.2912    -0.0789 C.3     
   8 C8             0.7249    -2.7399     1.2816 C.ar    
   9 S9            -0.0983    -2.6346    -1.3060 S.3     
  10 C10           -0.5586    -2.4464     1.7026 C.ar    
  11 C11            1.5774    -3.4500     2.1061 C.ar    
  12 C12           -0.9877    -2.8580     2.9506 C.ar    
  13 C13            1.1483    -3.8616     3.3540 C.ar    
  14 C14           -0.1335    -3.5635     3.7772 C.ar    
  15 C15           -0.2976    -4.4343    -1.1958 C.3     
  16 C16           -1.3707    -4.8901    -2.1865 C.3     
  17 N17           -0.9117    -4.6332    -3.5581 N.3     
  18 H18           -0.7968    -3.6442    -3.7217 H       
  19 H19           -0.0576    -5.1337    -3.7534 H       
  20 C20            4.7817    -2.7783    -3.5209 C.3     
  21 C21            4.2437    -3.3138    -2.1925 C.3     
  22 C22            3.0062    -2.5126    -1.7833 C.3     
  23 C23            2.4681    -3.0481    -0.4549 C.3     
  24 C24           -1.6237    -6.3652    -2.0095 C.2     
  25 O25           -1.1186    -7.1599    -2.7666 O.2     
  26 O26           -2.4103    -6.7961    -1.0108 O.3     
  27 H27            3.2270     1.4793     1.7019 H       
  28 H28            2.7651    -0.9388     1.6520 H       
  29 H29            2.2041     2.9631     0.0241 H       
  30 H30            0.7118     2.0301    -1.6980 H       
  31 H31            0.2467    -0.3875    -1.7456 H       
  32 H32           -1.2260    -1.8951     1.0568 H       
  33 H33            2.5786    -3.6835     1.7753 H       
  34 H34           -1.9903    -2.6280     3.2798 H       
  35 H35            1.8142    -4.4167     3.9981 H       
  36 H36           -0.4688    -3.8851     4.7522 H       
  37 H37            0.6483    -4.9199    -1.4358 H       
  38 H38           -0.5987    -4.7052    -0.1839 H       
  39 H39           -2.2928    -4.3387    -2.0026 H       
  40 H40            4.0150    -2.8762    -4.2894 H       
  41 H41            5.0501    -1.7280    -3.4072 H       
  42 H42            5.6633    -3.3491    -3.8124 H       
  43 H43            3.9753    -4.3641    -2.3062 H       
  44 H44            5.0104    -3.2159    -1.4240 H       
  45 H45            3.2746    -1.4623    -1.6696 H       
  46 H46            2.2394    -2.6105    -2.5518 H       
  47 H47            3.2175    -2.9070     0.3240 H       
  48 H48            2.2441    -4.1101    -0.5554 H       
  49 H49           -2.5431    -7.7511    -0.9375 H       
@<TRIPOS>BOND
   1    1    2 ar
   2    1    3 ar
   3    1   27 1
   4    2    4 ar
   5    2   28 1
   6    3    5 ar
   7    3   29 1
   8    4    6 ar
   9    4    7 1
  10    5    6 ar
  11    5   30 1
  12    6   31 1
  13    7    8 1
  14    7    9 1
  15    7   23 1
  16    8   10 ar
  17    8   11 ar
  18    9   15 1
  19   10   12 ar
  20   10   32 1
  21   11   13 ar
  22   11   33 1
  23   12   14 ar
  24   12   34 1
  25   13   14 ar
  26   13   35 1
  27   14   36 1
  28   15   16 1
  29   15   37 1
  30   15   38 1
  31   16   17 1
  32   16   24 1
  33   16   39 1
  34   17   18 1
  35   17   19 1
  36   20   21 1
  37   20   40 1
  38   20   41 1
  39   20   42 1
  40   21   22 1
  41   21   43 1
  42   21   44 1
  43   22   23 1
  44   22   45 1
  45   22   46 1
  46   23   47 1
  47   23   48 1
  48   24   25 2
  49   24   26 1
  50   26   49 1

#	End of record

