#	Name: ASD01915355
#	Creating user name:	WinNT
#	Creation time:	15. 06. 2019 20:05

#	Modifying user name:	WinNT
#	Modification time:	15. 06. 2019 20:05

#	Program:	/corina/corina34_cracker 3.40 0067  02.08.2006

@<TRIPOS>MOLECULE
ASD01915355
  45   48    0    0    0
SMALL
NO_CHARGES


@<TRIPOS>ATOM
   1 C1            -0.0169     1.3921     0.0097 C.ar    
   2 C2             0.0021    -0.0041     0.0020 C.ar    
   3 N3            -1.1415    -0.6923     0.0096 N.ar    
   4 C4            -2.3142    -0.1034     0.0244 C.ar    
   5 C5            -2.4179     1.2852     0.0324 C.ar    
   6 C6            -1.2649     2.0492     0.0305 C.ar    
   7 C7             1.3286     1.9586    -0.0001 C.2     
   8 C8             2.3060     1.0550    -0.0143 C.2     
   9 S9             1.6664    -0.5765    -0.0169 S.3     
  10 C10            1.5850     3.4182     0.0048 C.ar    
  11 C11            1.2147     4.1899     1.1056 C.ar    
  12 S12            4.0233     1.4490    -0.0291 S.o2    
  13 O13            4.6885     0.3234    -0.5858 O.2     
  14 O14            4.1297     2.7595    -0.5679 O.2     
  15 C15            4.5481     1.5570     1.6495 C.ar    
  16 C16            5.0216     0.4324     2.2991 C.ar    
  17 C17            4.4916     2.7677     2.3145 C.ar    
  18 C18            4.9035     2.8531     3.6310 C.ar    
  19 C19            5.3722     1.7267     4.2835 C.ar    
  20 C20            5.4330     0.5164     3.6159 C.ar    
  21 C21            1.4557     5.5485     1.1049 C.ar    
  22 C22            2.0640     6.1457     0.0139 C.ar    
  23 C23            2.4332     5.3842    -1.0818 C.ar    
  24 C24            2.2025     4.0238    -1.0890 C.ar    
  25 Cl25           2.3642     7.8555     0.0196 Cl      
  26 Cl26           5.8898     1.8333     5.9371 Cl      
  27 N27           -3.6751     1.9011     0.0472 N.am    
  28 S28           -4.8554     1.3494     1.0695 S.o2    
  29 O29           -5.9745     2.1806     0.7937 O.2     
  30 O30           -4.9042    -0.0497     0.8259 O.2     
  31 C31           -4.2080     1.6840     2.7307 C.3     
  32 H32           -3.2116    -0.7043     0.0300 H       
  33 H33           -1.3192     3.1279     0.0370 H       
  34 H34            0.7399     3.7252     1.9570 H       
  35 H35            5.0697    -0.5122     1.7777 H       
  36 H36            4.1257     3.6469     1.8051 H       
  37 H37            4.8599     3.7991     4.1503 H       
  38 H38            5.7984    -0.3633     4.1248 H       
  39 H39            1.1690     6.1472     1.9568 H       
  40 H40            2.9067     5.8551    -1.9306 H       
  41 H41            2.4913     3.4306    -1.9440 H       
  42 H42           -3.8549     2.6509    -0.5413 H       
  43 H43           -4.0379     2.7545     2.8456 H       
  44 H44           -4.9292     1.3487     3.4761 H       
  45 H45           -3.2679     1.1499     2.8687 H       
@<TRIPOS>BOND
   1    1    2 ar
   2    1    7 1
   3    1    6 ar
   4    2    3 ar
   5    2    9 1
   6    3    4 ar
   7    4    5 ar
   8    4   32 1
   9    5    6 ar
  10    5   27 1
  11    6   33 1
  12    7    8 2
  13    7   10 1
  14    8    9 1
  15    8   12 1
  16   10   11 ar
  17   10   24 ar
  18   11   21 ar
  19   11   34 1
  20   12   13 2
  21   12   14 2
  22   12   15 1
  23   15   16 ar
  24   15   17 ar
  25   16   20 ar
  26   16   35 1
  27   17   18 ar
  28   17   36 1
  29   18   19 ar
  30   18   37 1
  31   19   20 ar
  32   19   26 1
  33   20   38 1
  34   21   22 ar
  35   21   39 1
  36   22   23 ar
  37   22   25 1
  38   23   24 ar
  39   23   40 1
  40   24   41 1
  41   27   28 am
  42   27   42 1
  43   28   31 1
  44   28   29 2
  45   28   30 2
  46   31   43 1
  47   31   44 1
  48   31   45 1

#	End of record

