#	Name: ASD01881143
#	Creating user name:	WinNT
#	Creation time:	15. 06. 2019 19:42

#	Modifying user name:	WinNT
#	Modification time:	15. 06. 2019 19:42

#	Program:	/corina/corina34_cracker 3.40 0067  02.08.2006

@<TRIPOS>MOLECULE
ASD01881143
  41   43    0    0    0
SMALL
NO_CHARGES


@<TRIPOS>ATOM
   1 N1            -0.0158     1.3136     0.0093 N.ar    
   2 C2             0.0021    -0.0041     0.0020 C.ar    
   3 N3             1.1319    -0.6827    -0.0124 N.ar    
   4 C4             2.2989    -0.0581    -0.0202 C.ar    
   5 C5             2.3222     1.3269    -0.0130 C.ar    
   6 C6             1.1127     2.0071     0.0022 C.ar    
   7 C7             3.6294     2.0768    -0.0210 C.3     
   8 O8             4.0302     2.3210    -1.3707 O.3     
   9 C9             5.1956     2.9915    -1.5556 C.ar    
  10 C10            5.6444     3.2626    -2.8449 C.ar    
  11 C11            6.8227     3.9410    -3.0317 C.ar    
  12 C12            7.5785     4.3634    -1.9327 C.ar    
  13 C13            7.1234     4.0886    -0.6387 C.ar    
  14 C14            5.9360     3.4112    -0.4578 C.ar    
  15 C15            7.5746     4.3860    -4.2614 C.3     
  16 N16            8.7785     5.0724    -3.7791 N.am    
  17 C17            8.7763     5.0568    -2.4351 C.2     
  18 O18            9.6406     5.5462    -1.7337 O.2     
  19 C19           -1.3044    -0.7552     0.0110 C.3     
  20 C20            3.5850    -0.8433    -0.0362 C.3     
  21 Cl21           8.0486     4.6047     0.7366 Cl      
  22 Cl22           1.0791     3.7428     0.0113 Cl      
  23 C23            9.4537     7.1366    -4.9035 C.3     
  24 C24            9.8124     5.6759    -4.6235 C.3     
  25 H25            3.5065     3.0268     0.4991 H       
  26 H26            4.3921     1.4829     0.4827 H       
  27 H27            5.0660     2.9391    -3.6977 H       
  28 H28            5.5844     3.1993     0.5411 H       
  29 H29            7.8523     3.5214    -4.8642 H       
  30 H30            6.9621     5.0711    -4.8476 H       
  31 H31           -1.6296    -0.9308    -1.0145 H       
  32 H32           -1.1707    -1.7106     0.5184 H       
  33 H33           -2.0578    -0.1675     0.5355 H       
  34 H34            3.8855    -1.0274    -1.0677 H       
  35 H35            4.3637    -0.2756     0.4732 H       
  36 H36            3.4362    -1.7948     0.4743 H       
  37 H37            8.4931     7.1830    -5.4164 H       
  38 H38            9.3896     7.6820    -3.9620 H       
  39 H39           10.2230     7.5856    -5.5318 H       
  40 H40           10.7731     5.6296    -4.1106 H       
  41 H41            9.8766     5.1305    -5.5651 H       
@<TRIPOS>BOND
   1    1    2 ar
   2    1    6 ar
   3    2    3 ar
   4    2   19 1
   5    3    4 ar
   6    4    5 ar
   7    4   20 1
   8    5    6 ar
   9    5    7 1
  10    6   22 1
  11    7    8 1
  12    7   25 1
  13    7   26 1
  14    8    9 1
  15    9   10 ar
  16    9   14 ar
  17   10   11 ar
  18   10   27 1
  19   11   12 ar
  20   11   15 1
  21   12   13 ar
  22   12   17 1
  23   13   14 ar
  24   13   21 1
  25   14   28 1
  26   15   16 1
  27   15   29 1
  28   15   30 1
  29   16   17 am
  30   16   24 1
  31   17   18 2
  32   19   31 1
  33   19   32 1
  34   19   33 1
  35   20   34 1
  36   20   35 1
  37   20   36 1
  38   23   24 1
  39   23   37 1
  40   23   38 1
  41   23   39 1
  42   24   40 1
  43   24   41 1

#	End of record

