#	Name: ASD09740154
#	Creating user name:	WinNT
#	Creation time:	15. 06. 2019 21:22

#	Modifying user name:	WinNT
#	Modification time:	15. 06. 2019 21:22

#	Program:	/corina/corina34_cracker 3.40 0067  02.08.2006

@<TRIPOS>MOLECULE
ASD09740154
  55   59    0    0    0
SMALL
NO_CHARGES


@<TRIPOS>ATOM
   1 N1            -0.3492     1.0285    -0.0395 N.2     
   2 O2            -0.2331    -0.1761     0.0403 O.3     
   3 C3             0.8179     1.5858    -0.2379 C.2     
   4 N4             1.7346     0.5968    -0.2810 N.2     
   5 C5             1.0560    -0.5215    -0.1029 C.2     
   6 C6             1.6095    -1.8907    -0.0672 C.ar    
   7 C7             1.0842     3.0384    -0.3883 C.ar    
   8 C8             2.9814    -2.0944    -0.2317 C.ar    
   9 C9             0.7617    -2.9823     0.1370 C.ar    
  10 C10            1.2785    -4.2577     0.1706 C.ar    
  11 C11            2.6485    -4.4605     0.0013 C.ar    
  12 C12            3.4963    -3.3710    -0.1977 C.ar    
  13 C13            0.0346     3.9521    -0.3217 C.ar    
  14 C14            0.2879     5.3017    -0.4617 C.ar    
  15 C15            1.5809     5.7475    -0.6680 C.ar    
  16 C16            2.6266     4.8446    -0.7354 C.ar    
  17 C17            2.3853     3.4933    -0.5909 C.ar    
  18 N18            2.1202     7.8094     0.4992 N.3     
  19 C19            2.1541     9.2816     0.4254 C.3     
  20 C20            1.8513     7.2222    -0.8202 C.3     
  21 C21            1.1056     9.8138     1.4248 C.3     
  22 C22            0.9381     8.6333     2.4173 C.3     
  23 C23            1.0857     7.4109     1.4774 C.3     
  24 C24            3.2042    -5.8347     0.0387 C.ar    
  25 C25            2.7529    -6.7967    -0.8636 C.ar    
  26 C26            3.2737    -8.0740    -0.8241 C.ar    
  27 C27            4.2418    -8.4006     0.1085 C.ar    
  28 C28            4.6931    -7.4502     1.0066 C.ar    
  29 C29            4.1841    -6.1680     0.9725 C.ar    
  30 C30            0.3643    -5.4353     0.3908 C.3     
  31 F31           -0.9249    -4.9768     0.6820 F       
  32 F32            0.3295    -6.2214    -0.7659 F       
  33 F33            0.8397    -6.2010     1.4609 F       
  34 H34            3.6381    -1.2510    -0.3859 H       
  35 H35           -0.2987    -2.8255     0.2688 H       
  36 H36            4.5567    -3.5291    -0.3287 H       
  37 H37           -0.9754     3.6050    -0.1611 H       
  38 H38           -0.5251     6.0108    -0.4106 H       
  39 H39            3.6342     5.1979    -0.8973 H       
  40 H40            3.2025     2.7891    -0.6438 H       
  41 H41            3.1450     9.6439     0.6994 H       
  42 H42            1.9035     9.6081    -0.5840 H       
  43 H43            2.7171     7.3681    -1.4661 H       
  44 H44            0.9816     7.7072    -1.2633 H       
  45 H45            1.4782    10.6998     1.9390 H       
  46 H46            0.1645    10.0281     0.9184 H       
  47 H47            1.7247     8.6429     3.1718 H       
  48 H48           -0.0474     8.6513     2.8827 H       
  49 H49            0.1428     7.2061     0.9703 H       
  50 H50            1.4125     6.5366     2.0403 H       
  51 H51            1.9968    -6.5429    -1.5919 H       
  52 H52            2.9245    -8.8203    -1.5224 H       
  53 H53            4.6465    -9.4015     0.1357 H       
  54 H54            5.4486    -7.7110     1.7330 H       
  55 H55            4.5372    -5.4268     1.6742 H       
@<TRIPOS>BOND
   1    1    2 1
   2    1    3 2
   3    2    5 1
   4    3    4 1
   5    3    7 1
   6    4    5 2
   7    5    6 1
   8    6    8 ar
   9    6    9 ar
  10    7   13 ar
  11    7   17 ar
  12    8   12 ar
  13    8   34 1
  14    9   10 ar
  15    9   35 1
  16   10   11 ar
  17   10   30 1
  18   11   12 ar
  19   11   24 1
  20   12   36 1
  21   13   14 ar
  22   13   37 1
  23   14   15 ar
  24   14   38 1
  25   15   16 ar
  26   15   20 1
  27   16   17 ar
  28   16   39 1
  29   17   40 1
  30   18   19 1
  31   18   20 1
  32   18   23 1
  33   19   21 1
  34   19   41 1
  35   19   42 1
  36   20   43 1
  37   20   44 1
  38   21   22 1
  39   21   45 1
  40   21   46 1
  41   22   23 1
  42   22   47 1
  43   22   48 1
  44   23   49 1
  45   23   50 1
  46   24   25 ar
  47   24   29 ar
  48   25   26 ar
  49   25   51 1
  50   26   27 ar
  51   26   52 1
  52   27   28 ar
  53   27   53 1
  54   28   29 ar
  55   28   54 1
  56   29   55 1
  57   30   31 1
  58   30   32 1
  59   30   33 1

#	End of record

