#	Name: ASD02198369
#	Creating user name:	WinNT
#	Creation time:	15. 06. 2019 20:19

#	Modifying user name:	WinNT
#	Modification time:	15. 06. 2019 20:19

#	Program:	/corina/corina34_cracker 3.40 0067  02.08.2006

@<TRIPOS>MOLECULE
ASD02198369
  37   39    0    0    0
SMALL
NO_CHARGES


@<TRIPOS>ATOM
   1 C1             0.0851     1.3382    -0.9469 C.2     
   2 C2             0.0755    -0.0334    -0.7510 C.2     
   3 S3             1.7333     1.9037    -0.6869 S.3     
   4 C4             2.2455     0.3088    -0.3507 C.2     
   5 N5             1.2497    -0.5262    -0.4366 N.2     
   6 N6            -1.0642    -0.8092    -0.8745 N.pl3   
   7 C7            -1.0129     2.1292    -1.2938 C.2     
   8 C8            -0.8441     3.6160    -1.4726 C.3     
   9 O9            -2.1054     1.6178    -1.4517 O.2     
  10 N10            3.5369    -0.0460    -0.0324 N.pl3   
  11 C11            3.8880    -1.3972     0.0627 C.ar    
  12 C12            2.9927    -2.3786    -0.3393 C.ar    
  13 C13            3.3422    -3.7121    -0.2443 C.ar    
  14 C14            4.5823    -4.0704     0.2506 C.ar    
  15 C15            5.4780    -3.0963     0.6530 C.ar    
  16 C16            5.1376    -1.7599     0.5551 C.ar    
  17 F17            6.0123    -0.8082     0.9480 F       
  18 C18           -1.9333     4.1610    -2.4129 C.3     
  19 C19           -2.7423     5.1923    -1.5993 C.3     
  20 C20           -1.7665     5.6473    -0.4858 C.3     
  21 C21           -1.0291     4.3352    -0.1204 C.3     
  22 H22           -1.9096    -0.3953    -1.1088 H       
  23 H23           -1.0175    -1.7667    -0.7267 H       
  24 H24            0.1435     3.8331    -1.8797 H       
  25 H25            4.2034     0.6407     0.1261 H       
  26 H26            2.0234    -2.1003    -0.7259 H       
  27 H27            2.6453    -4.4757    -0.5568 H       
  28 H28            4.8522    -5.1136     0.3236 H       
  29 H29            6.4457    -3.3796     1.0399 H       
  30 H30           -1.4744     4.6432    -3.2760 H       
  31 H31           -2.5841     3.3500    -2.7400 H       
  32 H32           -3.0247     6.0370    -2.2276 H       
  33 H33           -3.6266     4.7263    -1.1647 H       
  34 H34           -1.0662     6.3910    -0.8660 H       
  35 H35           -2.3144     6.0346     0.3733 H       
  36 H36           -1.6367     3.7308     0.5531 H       
  37 H37           -0.0613     4.5544     0.3306 H       
@<TRIPOS>BOND
   1    1    2 2
   2    1    3 1
   3    1    7 1
   4    2    6 1
   5    2    5 1
   6    3    4 1
   7    4    5 2
   8    4   10 1
   9    6   22 1
  10    6   23 1
  11    7    8 1
  12    7    9 2
  13    8   18 1
  14    8   21 1
  15    8   24 1
  16   10   11 1
  17   10   25 1
  18   11   12 ar
  19   11   16 ar
  20   12   13 ar
  21   12   26 1
  22   13   14 ar
  23   13   27 1
  24   14   15 ar
  25   14   28 1
  26   15   16 ar
  27   15   29 1
  28   16   17 1
  29   18   19 1
  30   18   30 1
  31   18   31 1
  32   19   20 1
  33   19   32 1
  34   19   33 1
  35   20   21 1
  36   20   34 1
  37   20   35 1
  38   21   36 1
  39   21   37 1

#	End of record

