#	Name: ASD00170345
#	Creating user name:	WinNT
#	Creation time:	15. 06. 2019 18:32

#	Modifying user name:	WinNT
#	Modification time:	15. 06. 2019 18:32

#	Program:	/corina/corina34_cracker 3.40 0067  02.08.2006

@<TRIPOS>MOLECULE
ASD00170345
  41   43    0    0    0
SMALL
NO_CHARGES


@<TRIPOS>ATOM
   1 C1             0.0144     1.3187    -0.0543 C.2     
   2 C2             0.0206    -0.0180    -0.0727 C.2     
   3 C3            -1.3190    -0.5769     0.0068 C.2     
   4 C4            -2.3007     0.3774     0.0876 C.2     
   5 S5            -1.6234     1.9391     0.0613 S.3     
   6 N6            -3.6517     0.1087     0.1737 N.pl3   
   7 C7            -1.5926    -2.0137     0.0011 C.2     
   8 O8            -1.6170    -2.6330     1.0493 O.2     
   9 C9             1.2650     2.1765    -0.1305 C.3     
  10 N10            2.4263     1.2899     0.0415 N.am    
  11 C11            2.4298     0.0112    -0.6855 C.3     
  12 C12            1.2849    -0.8577    -0.1593 C.3     
  13 C13            3.4548     1.6384     0.8397 C.2     
  14 O14            3.4299     2.8143     1.4950 O.3     
  15 C15            4.5715     3.1240     2.3371 C.3     
  16 C16            4.3646     4.4900     2.9946 C.3     
  17 C17           -1.8397    -2.7144    -1.2775 C.ar    
  18 C18           -1.9836    -4.1028    -1.2994 C.ar    
  19 C19           -2.2142    -4.7506    -2.4947 C.ar    
  20 C20           -2.3032    -4.0264    -3.6721 C.ar    
  21 C21           -2.1609    -2.6487    -3.6567 C.ar    
  22 C22           -1.9356    -1.9893    -2.4667 C.ar    
  23 Cl23          -2.5938    -4.8488    -5.1731 Cl      
  24 O24            4.4046     0.8915     0.9680 O.2     
  25 H25           -3.9699    -0.8050     0.1044 H       
  26 H26           -4.2830     0.8336     0.3034 H       
  27 H27            1.3167     2.6690    -1.1016 H       
  28 H28            1.2497     2.9235     0.6631 H       
  29 H29            2.2888     0.1960    -1.7505 H       
  30 H30            3.3796    -0.4985    -0.5236 H       
  31 H31            1.5399    -1.2358     0.8307 H       
  32 H32            1.1206    -1.6942    -0.8385 H       
  33 H33            4.6715     2.3608     3.1088 H       
  34 H34            5.4759     3.1467     1.7291 H       
  35 H35            4.2646     5.2533     2.2229 H       
  36 H36            3.4602     4.4673     3.6026 H       
  37 H37            5.2216     4.7225     3.6267 H       
  38 H38           -1.9140    -4.6685    -0.3821 H       
  39 H39           -2.3254    -5.8247    -2.5130 H       
  40 H40           -2.2305    -2.0893    -4.5780 H       
  41 H41           -1.8248    -0.9151    -2.4559 H       
@<TRIPOS>BOND
   1    1    2 2
   2    1    9 1
   3    1    5 1
   4    2    3 1
   5    2   12 1
   6    3    4 2
   7    3    7 1
   8    4    5 1
   9    4    6 1
  10    6   25 1
  11    6   26 1
  12    7    8 2
  13    7   17 1
  14    9   10 1
  15    9   27 1
  16    9   28 1
  17   10   11 1
  18   10   13 am
  19   11   12 1
  20   11   29 1
  21   11   30 1
  22   12   31 1
  23   12   32 1
  24   13   14 1
  25   13   24 2
  26   14   15 1
  27   15   16 1
  28   15   33 1
  29   15   34 1
  30   16   35 1
  31   16   36 1
  32   16   37 1
  33   17   18 ar
  34   17   22 ar
  35   18   19 ar
  36   18   38 1
  37   19   20 ar
  38   19   39 1
  39   20   21 ar
  40   20   23 1
  41   21   22 ar
  42   21   40 1
  43   22   41 1

#	End of record

