#	Name: ASD06600036
#	Creating user name:	WinNT
#	Creation time:	15. 06. 2019 21:07

#	Modifying user name:	WinNT
#	Modification time:	15. 06. 2019 21:07

#	Program:	/corina/corina34_cracker 3.40 0067  02.08.2006

@<TRIPOS>MOLECULE
ASD06600036
 286  289    0    0    0
SMALL
NO_CHARGES


@<TRIPOS>ATOM
   1 C1             0.2740     4.5651    -2.0431 C.2     
   2 O2             0.3984     3.3590    -2.0177 O.2     
   3 N3             2.6942     4.6115    -2.2142 N.am    
   4 C4             1.4917     5.4460    -2.1535 C.3     
   5 C5             1.3945     6.2937    -3.4235 C.3     
   6 C6             2.5491     7.2610    -3.4714 C.2     
   7 C7             3.4317     7.3905    -4.4802 C.2     
   8 N8             4.3078     8.3771    -4.1158 N.pl3   
   9 C9             3.9297     8.8166    -2.8962 C.2     
  10 N10            2.8742     8.1480    -2.5192 N.2     
  11 C11           -3.3365     4.9946    -2.4211 C.2     
  12 O12           -3.2137     6.1220    -2.8511 O.2     
  13 N13           -0.9537     5.1175    -1.9783 N.am    
  14 C14           -2.1379     4.2609    -1.8770 C.3     
  15 C15           -2.3829     3.9007    -0.4104 C.3     
  16 C16           -6.9647     4.5564    -2.3346 C.2     
  17 O17           -6.8925     3.6541    -1.5274 O.2     
  18 N18           -4.5450     4.3979    -2.4299 N.am    
  19 C19           -5.7102     5.1112    -2.9588 C.3     
  20 C20           -5.7730     4.9305    -4.4768 C.3     
  21 C21           -4.4994     5.4938    -5.1105 C.3     
  22 C22           -5.8924     3.4417    -4.8087 C.3     
  23 C23          -10.5556     4.7700    -2.9847 C.2     
  24 O24          -10.3869     5.3400    -4.0419 O.2     
  25 N25           -8.1668     5.0630    -2.6733 N.am    
  26 C26           -9.3863     4.5236    -2.0665 C.3     
  27 C27           -9.6370     5.2148    -0.7248 C.3     
  28 C28           -8.5274     4.8677     0.2341 C.2     
  29 C29           -7.7527     5.7458     0.8993 C.2     
  30 N30           -6.8806     5.0106     1.6559 N.pl3   
  31 C31           -7.1529     3.7079     1.4266 C.2     
  32 N32           -8.1422     3.6301     0.5791 N.2     
  33 C33          -14.1987     4.6291    -2.7181 C.2     
  34 O34          -14.1603     4.4681    -1.5166 O.2     
  35 N35          -11.7888     4.3570    -2.6311 N.am    
  36 C36          -12.9255     4.5965    -3.5237 C.3     
  37 C37          -13.0061     3.4734    -4.5596 C.3     
  38 C38          -17.7812     4.5012    -3.4338 C.2     
  39 O39          -17.5950     4.2385    -4.6031 O.2     
  40 N40          -15.3800     4.8372    -3.3327 N.am    
  41 C41          -16.6176     4.8689    -2.5495 C.3     
  42 C42          -16.8293     6.2758    -1.9869 C.3     
  43 C43          -15.7295     6.5959    -1.0076 C.ar    
  44 C44          -14.5657     7.1978    -1.4493 C.ar    
  45 C45          -13.5559     7.4918    -0.5536 C.ar    
  46 C46          -13.7104     7.1831     0.7901 C.ar    
  47 O47          -12.7186     7.4718     1.6732 O.3     
  48 C48          -14.8793     6.5797     1.2308 C.ar    
  49 C49          -15.8883     6.2924     0.3319 C.ar    
  50 C50          -21.4251     4.7035    -3.2243 C.2     
  51 O51          -21.3859     5.3624    -2.2068 O.2     
  52 N52          -19.0288     4.4642    -2.9253 N.am    
  53 C53          -20.1599     4.1068    -3.7849 C.3     
  54 C54          -20.2959     2.5839    -3.8419 C.3     
  55 C55          -19.0639     1.9871    -4.5251 C.3     
  56 C56          -19.1999     0.4642    -4.5821 C.3     
  57 N57          -18.0202    -0.1073    -5.2363 N.pl3   
  58 C58          -17.9178    -1.4682    -5.4023 C.2     
  59 N59          -16.8682    -1.9766    -5.9844 N.2     
  60 N60          -18.9226    -2.2928    -4.9545 N.pl3   
  61 C61          -25.0145     4.2736    -3.7673 C.2     
  62 O62          -24.8475     3.3061    -4.4794 O.2     
  63 N63          -22.6003     4.5048    -3.8535 N.am    
  64 C64          -23.8303     5.0849    -3.3085 C.3     
  65 C65          -23.9770     6.5256    -3.8022 C.3     
  66 C66          -22.8580     7.3651    -3.2418 C.2     
  67 C67          -21.9963     8.1140    -3.9562 C.2     
  68 N68          -21.1498     8.7077    -3.0592 N.pl3   
  69 C69          -21.5238     8.3007    -1.8271 C.2     
  70 N70          -22.5492     7.5019    -1.9437 N.2     
  71 C71          -28.6448     4.6988    -3.8245 C.2     
  72 O72          -28.5702     5.8594    -3.4803 O.2     
  73 N73          -26.2591     4.6231    -3.3863 N.am    
  74 C74          -27.4103     3.8344    -3.8323 C.3     
  75 C75          -27.6125     2.6480    -2.8876 C.3     
  76 C76          -26.4121     1.7049    -2.9890 C.3     
  77 C77          -26.6143     0.5185    -2.0443 C.3     
  78 N78          -25.4648    -0.3845    -2.1415 N.pl3   
  79 C79          -25.4226    -1.5280    -1.3794 C.2     
  80 N80          -24.3999    -2.3314    -1.4658 N.2     
  81 N81          -26.4592    -1.8240    -0.5261 N.pl3   
  82 C82          -32.2529     4.1528    -4.0401 C.2     
  83 O83          -32.1327     2.9496    -3.9470 O.2     
  84 N84          -29.8316     4.1822    -4.2000 N.am    
  85 C85          -31.0316     5.0225    -4.1925 C.3     
  86 C86          -31.1191     5.7985    -5.5082 C.3     
  87 C87          -29.9433     6.7728    -5.6047 C.3     
  88 C88          -30.0308     7.5489    -6.9204 C.3     
  89 N89          -28.9050     8.4817    -7.0129 N.pl3   
  90 C90          -28.7724     9.2920    -8.1156 C.2     
  91 N91          -27.7708    10.1220    -8.1979 N.2     
  92 N92          -29.6964     9.2267    -9.1316 N.pl3   
  93 C93          -35.8260     4.5905    -4.6110 C.2     
  94 O94          -35.8211     5.8019    -4.6687 O.2     
  95 N95          -33.4786     4.7122    -4.0073 N.am    
  96 C96          -34.6712     3.8619    -3.9734 C.3     
  97 C97          -35.0182     3.5278    -2.5212 C.3     
  98 C98          -36.1579     2.5075    -2.4910 C.3     
  99 C99          -35.6751     1.1856    -3.0912 C.3     
 100 C100         -36.5999     2.2793    -1.0441 C.3     
 101 C101         -39.2400     3.7079    -5.5744 C.2     
 102 O102         -39.1364     2.5862    -5.1250 O.2     
 103 N103         -36.8642     3.8960    -5.1171 N.am    
 104 C104         -38.0315     4.6053    -5.6465 C.3     
 105 C105         -37.7732     4.9968    -7.1029 C.3     
 106 C106         -42.6145     3.7038    -6.9800 C.2     
 107 O107         -42.3724     4.6426    -7.7087 O.2     
 108 N108         -40.4360     4.1518    -6.0093 N.am    
 109 C109         -41.6108     3.2793    -5.9392 C.3     
 110 C110         -42.2419     3.3845    -4.5493 C.3     
 111 O111         -42.7419     4.7085    -4.3522 O.3     
 112 C112         -45.6127     4.5641    -7.5620 C.2     
 113 O113         -45.4266     4.9699    -6.4392 O.2     
 114 N114         -43.7813     3.0401    -7.1012 N.am    
 115 C115         -44.7571     3.4527    -8.1130 C.3     
 116 C116         -45.6436     2.2616    -8.4822 C.3     
 117 C117         -46.5792     2.6574    -9.6263 C.3     
 118 C118         -47.3776     1.4333   -10.0789 C.3     
 119 C119         -46.4732     1.8468    -7.2653 C.3     
 120 O120         -46.5817     5.1032    -8.3184 O.3     
 121 C121           3.8815     5.1105    -1.8170 C.2     
 122 O122           3.9544     6.2504    -1.4092 O.2     
 123 C123          22.3262     3.7552     1.2070 C.3     
 124 C124          21.0703     4.6268     1.2705 C.3     
 125 C125          19.8680     3.8262     0.7661 C.3     
 126 C126          18.6121     4.6978     0.8295 C.3     
 127 C127          17.4098     3.8972     0.3252 C.3     
 128 C128          16.1539     4.7687     0.3886 C.3     
 129 C129          14.9515     3.9682    -0.1157 C.3     
 130 C130          13.6956     4.8397    -0.0523 C.3     
 131 C131          12.4933     4.0391    -0.5567 C.3     
 132 C132          11.2374     4.9107    -0.4932 C.3     
 133 C133          10.0350     4.1101    -0.9976 C.3     
 134 C134           8.7791     4.9816    -0.9342 C.3     
 135 C135           7.5768     4.1811    -1.4385 C.3     
 136 C136           6.3209     5.0526    -1.3751 C.3     
 137 C137           5.1186     4.2520    -1.8794 C.3     
 138 H138           2.6360     3.6998    -2.5403 H       
 139 H139           1.5470     6.1002    -1.2834 H       
 140 H140           1.4287     5.6436    -4.2978 H       
 141 H141           0.4560     6.8480    -3.4194 H       
 142 H142           3.4459     6.8243    -5.3998 H       
 143 H143           5.0597     8.7003    -4.6364 H       
 144 H144           4.4175     9.5952    -2.3285 H       
 145 H145          -1.0532     6.0821    -1.9986 H       
 146 H146          -1.9774     3.3496    -2.4531 H       
 147 H147          -2.5433     4.8120     0.1657 H       
 148 H148          -3.2640     3.2634    -0.3351 H       
 149 H149          -1.5159     3.3700    -0.0169 H       
 150 H150          -4.6432     3.4963    -2.0860 H       
 151 H151          -5.6252     6.1718    -2.7223 H       
 152 H152          -6.6400     5.4612    -4.8703 H       
 153 H153          -4.5441     5.3650    -6.1919 H       
 154 H154          -4.4143     6.5544    -4.8740 H       
 155 H155          -3.6324     4.9631    -4.7170 H       
 156 H156          -6.7997     3.0405    -4.3572 H       
 157 H157          -5.9371     3.3130    -5.8901 H       
 158 H158          -5.0254     2.9111    -4.4152 H       
 159 H159          -8.2246     5.7846    -3.3189 H       
 160 H160          -9.2693     3.4518    -1.9068 H       
 161 H161          -9.6656     6.2944    -0.8719 H       
 162 H162         -10.5895     4.8786    -0.3152 H       
 163 H163          -7.8086     6.8230     0.8457 H       
 164 H164          -6.1950     5.3600     2.2465 H       
 165 H165          -6.6396     2.8694     1.8737 H       
 166 H166         -11.9237     3.9011    -1.7856 H       
 167 H167         -12.7930     5.5513    -4.0326 H       
 168 H168         -13.1386     2.5186    -4.0507 H       
 169 H169         -13.8518     3.6516    -5.2237 H       
 170 H170         -12.0852     3.4498    -5.1423 H       
 171 H171         -15.4106     4.9659    -4.2936 H       
 172 H172         -16.5461     4.1560    -1.7280 H       
 173 H173         -16.8120     6.9994    -2.8019 H       
 174 H174         -17.7928     6.3231    -1.4794 H       
 175 H175         -14.4458     7.4379    -2.4954 H       
 176 H176         -12.6467     7.9613    -0.8992 H       
 177 H177         -12.7891     8.3506     2.0704 H       
 178 H178         -15.0018     6.3381     2.2762 H       
 179 H179         -16.8002     5.8267     0.6752 H       
 180 H180         -19.1778     4.6743    -1.9901 H       
 181 H181         -19.9896     4.4942    -4.7894 H       
 182 H182         -20.3774     2.1883    -2.8295 H       
 183 H183         -21.1891     2.3198    -4.4082 H       
 184 H184         -18.9824     2.3827    -5.5375 H       
 185 H185         -18.1707     2.2512    -3.9588 H       
 186 H186         -19.2813     0.0686    -3.5697 H       
 187 H187         -20.0930     0.2001    -5.1484 H       
 188 H188         -17.3113     0.4746    -5.5523 H       
 189 H189         -16.7960    -2.9368    -6.1015 H       
 190 H190         -19.7037    -1.9144    -4.5213 H       
 191 H191         -18.8504    -3.2530    -5.0716 H       
 192 H192         -22.6317     3.9778    -4.6673 H       
 193 H193         -23.7843     5.0768    -2.2195 H       
 194 H194         -23.9338     6.5427    -4.8912 H       
 195 H195         -24.9342     6.9277    -3.4702 H       
 196 H196         -21.9768     8.2245    -5.0303 H       
 197 H197         -20.4179     9.3086    -3.2694 H       
 198 H198         -21.0548     8.5914    -0.8988 H       
 199 H199         -26.3926     5.3969    -2.8168 H       
 200 H200         -27.2300     3.4677    -4.8427 H       
 201 H201         -27.7044     3.0104    -1.8637 H       
 202 H202         -28.5200     2.1123    -3.1661 H       
 203 H203         -26.3202     1.3426    -4.0129 H       
 204 H204         -25.5046     2.2407    -2.7104 H       
 205 H205         -26.7061     0.8809    -1.0204 H       
 206 H206         -27.5217    -0.0172    -2.3229 H       
 207 H207         -24.7334    -0.1756    -2.7435 H       
 208 H208         -24.3701    -3.1382    -0.9281 H       
 209 H209         -27.2202    -1.2261    -0.4618 H       
 210 H210         -26.4294    -2.6308     0.0116 H       
 211 H211         -29.8912     3.2540    -4.4753 H       
 212 H212         -30.9788     5.7238    -3.3598 H       
 213 H213         -31.0824     5.1007    -6.3447 H       
 214 H214         -32.0557     6.3551    -5.5401 H       
 215 H215         -29.9800     7.4706    -4.7682 H       
 216 H216         -29.0067     6.2162    -5.5728 H       
 217 H217         -29.9941     6.8511    -7.7570 H       
 218 H218         -30.9674     8.1055    -6.9523 H       
 219 H219         -28.2531     8.5278    -6.2960 H       
 220 H220         -27.6773    10.6936    -8.9759 H       
 221 H221         -30.4418     8.6091    -9.0704 H       
 222 H222         -29.6028     9.7984    -9.9097 H       
 223 H223         -33.5713     5.6777    -4.0062 H       
 224 H224         -34.4759     2.9402    -4.5216 H       
 225 H225         -34.1424     3.1090    -2.0255 H       
 226 H226         -35.3292     4.4354    -2.0040 H       
 227 H227         -36.9990     2.8849    -3.0726 H       
 228 H228         -34.8742     0.7776    -2.4747 H       
 229 H229         -36.5036     0.4780    -3.1255 H       
 230 H230         -35.3036     1.3593    -4.1012 H       
 231 H231         -36.9439     3.2211    -0.6165 H       
 232 H232         -37.4119     1.5525    -1.0226 H       
 233 H233         -35.7589     1.9019    -0.4625 H       
 234 H234         -36.8385     2.9264    -5.1308 H       
 235 H235         -38.2101     5.5034    -5.0551 H       
 236 H236         -38.6417     5.5245    -7.4968 H       
 237 H237         -36.8991     5.6459    -7.1551 H       
 238 H238         -37.5947     4.0987    -7.6943 H       
 239 H239         -40.5189     5.0489    -6.3687 H       
 240 H240         -41.3093     2.2484    -6.1243 H       
 241 H241         -43.0615     2.6706    -4.4675 H       
 242 H242         -41.4904     3.1633    -3.7914 H       
 243 H243         -43.1567     4.8479    -3.4899 H       
 244 H244         -43.9749     2.2892    -6.5184 H       
 245 H245         -44.2326     3.8044    -9.0015 H       
 246 H246         -45.0177     1.4266    -8.7970 H       
 247 H247         -47.2650     3.4321    -9.2833 H       
 248 H248         -45.9910     3.0369   -10.4618 H       
 249 H249         -47.9658     1.0539    -9.2433 H       
 250 H250         -48.0441     1.7153   -10.8940 H       
 251 H251         -46.6917     0.6587   -10.4219 H       
 252 H252         -47.0990     2.6819    -6.9505 H       
 253 H253         -47.1048     0.9983    -7.5283 H       
 254 H254         -45.8067     1.5649    -6.4502 H       
 255 H255         -47.1044     5.8135    -7.9217 H       
 256 H256          22.1885     2.8734     1.8328 H       
 257 H257          22.5021     3.4458     0.1768 H       
 258 H258          23.1828     4.3256     1.5663 H       
 259 H259          20.8945     4.9362     2.3007 H       
 260 H260          21.2080     5.5086     0.6447 H       
 261 H261          20.0439     3.5168    -0.2641 H       
 262 H262          19.7303     2.9444     1.3919 H       
 263 H263          18.4362     5.0072     1.8598 H       
 264 H264          18.7498     5.5795     0.2038 H       
 265 H265          17.5856     3.5877    -0.7051 H       
 266 H266          17.2721     3.0154     0.9510 H       
 267 H267          15.9780     5.0782     1.4189 H       
 268 H268          16.2916     5.6505    -0.2372 H       
 269 H269          15.1274     3.6587    -1.1460 H       
 270 H270          14.8138     3.0864     0.5100 H       
 271 H271          13.5198     5.1492     0.9779 H       
 272 H272          13.8333     5.7215    -0.6781 H       
 273 H273          12.6691     3.7297    -1.5869 H       
 274 H274          12.3556     3.1573     0.0691 H       
 275 H275          11.0615     5.2201     0.5370 H       
 276 H276          11.3751     5.7925    -1.1190 H       
 277 H277          10.2109     3.8006    -2.0278 H       
 278 H278           9.8973     3.2283    -0.3718 H       
 279 H279           8.6033     5.2911     0.0961 H       
 280 H280           8.9168     5.8634    -1.5599 H       
 281 H281           7.7527     3.8716    -2.4688 H       
 282 H282           7.4391     3.2993    -0.8127 H       
 283 H283           6.1450     5.3621    -0.3448 H       
 284 H284           6.4586     5.9344    -2.0009 H       
 285 H285           4.9809     3.3703    -1.2537 H       
 286 H286           5.2944     3.9426    -2.9097 H       
@<TRIPOS>BOND
   1    1    2 2
   2    1    4 1
   3    1   13 am
   4    3  121 am
   5    3    4 1
   6    3  138 1
   7    4    5 1
   8    4  139 1
   9    5    6 1
  10    5  140 1
  11    5  141 1
  12    6    7 2
  13    6   10 1
  14    7    8 1
  15    7  142 1
  16    8    9 1
  17    8  143 1
  18    9   10 2
  19    9  144 1
  20   11   12 2
  21   11   14 1
  22   11   18 am
  23   13   14 1
  24   13  145 1
  25   14   15 1
  26   14  146 1
  27   15  147 1
  28   15  148 1
  29   15  149 1
  30   16   17 2
  31   16   19 1
  32   16   25 am
  33   18   19 1
  34   18  150 1
  35   19   20 1
  36   19  151 1
  37   20   21 1
  38   20   22 1
  39   20  152 1
  40   21  153 1
  41   21  154 1
  42   21  155 1
  43   22  156 1
  44   22  157 1
  45   22  158 1
  46   23   24 2
  47   23   26 1
  48   23   35 am
  49   25   26 1
  50   25  159 1
  51   26   27 1
  52   26  160 1
  53   27   28 1
  54   27  161 1
  55   27  162 1
  56   28   29 2
  57   28   32 1
  58   29   30 1
  59   29  163 1
  60   30   31 1
  61   30  164 1
  62   31   32 2
  63   31  165 1
  64   33   34 2
  65   33   36 1
  66   33   40 am
  67   35   36 1
  68   35  166 1
  69   36   37 1
  70   36  167 1
  71   37  168 1
  72   37  169 1
  73   37  170 1
  74   38   39 2
  75   38   41 1
  76   38   52 am
  77   40   41 1
  78   40  171 1
  79   41   42 1
  80   41  172 1
  81   42   43 1
  82   42  173 1
  83   42  174 1
  84   43   44 ar
  85   43   49 ar
  86   44   45 ar
  87   44  175 1
  88   45   46 ar
  89   45  176 1
  90   46   47 1
  91   46   48 ar
  92   47  177 1
  93   48   49 ar
  94   48  178 1
  95   49  179 1
  96   50   51 2
  97   50   53 1
  98   50   63 am
  99   52   53 1
 100   52  180 1
 101   53   54 1
 102   53  181 1
 103   54   55 1
 104   54  182 1
 105   54  183 1
 106   55   56 1
 107   55  184 1
 108   55  185 1
 109   56   57 1
 110   56  186 1
 111   56  187 1
 112   57   58 1
 113   57  188 1
 114   58   59 2
 115   58   60 1
 116   59  189 1
 117   60  190 1
 118   60  191 1
 119   61   62 2
 120   61   64 1
 121   61   73 am
 122   63   64 1
 123   63  192 1
 124   64   65 1
 125   64  193 1
 126   65   66 1
 127   65  194 1
 128   65  195 1
 129   66   67 2
 130   66   70 1
 131   67   68 1
 132   67  196 1
 133   68   69 1
 134   68  197 1
 135   69   70 2
 136   69  198 1
 137   71   72 2
 138   71   74 1
 139   71   84 am
 140   73   74 1
 141   73  199 1
 142   74   75 1
 143   74  200 1
 144   75   76 1
 145   75  201 1
 146   75  202 1
 147   76   77 1
 148   76  203 1
 149   76  204 1
 150   77   78 1
 151   77  205 1
 152   77  206 1
 153   78   79 1
 154   78  207 1
 155   79   80 2
 156   79   81 1
 157   80  208 1
 158   81  209 1
 159   81  210 1
 160   82   83 2
 161   82   85 1
 162   82   95 am
 163   84   85 1
 164   84  211 1
 165   85   86 1
 166   85  212 1
 167   86   87 1
 168   86  213 1
 169   86  214 1
 170   87   88 1
 171   87  215 1
 172   87  216 1
 173   88   89 1
 174   88  217 1
 175   88  218 1
 176   89   90 1
 177   89  219 1
 178   90   91 2
 179   90   92 1
 180   91  220 1
 181   92  221 1
 182   92  222 1
 183   93   94 2
 184   93   96 1
 185   93  103 am
 186   95   96 1
 187   95  223 1
 188   96   97 1
 189   96  224 1
 190   97   98 1
 191   97  225 1
 192   97  226 1
 193   98   99 1
 194   98  100 1
 195   98  227 1
 196   99  228 1
 197   99  229 1
 198   99  230 1
 199  100  231 1
 200  100  232 1
 201  100  233 1
 202  101  102 2
 203  101  104 1
 204  101  108 am
 205  103  104 1
 206  103  234 1
 207  104  105 1
 208  104  235 1
 209  105  236 1
 210  105  237 1
 211  105  238 1
 212  106  107 2
 213  106  109 1
 214  106  114 am
 215  108  109 1
 216  108  239 1
 217  109  110 1
 218  109  240 1
 219  110  111 1
 220  110  241 1
 221  110  242 1
 222  111  243 1
 223  112  113 2
 224  112  115 1
 225  112  120 1
 226  114  115 1
 227  114  244 1
 228  115  116 1
 229  115  245 1
 230  116  117 1
 231  116  119 1
 232  116  246 1
 233  117  118 1
 234  117  247 1
 235  117  248 1
 236  118  249 1
 237  118  250 1
 238  118  251 1
 239  119  252 1
 240  119  253 1
 241  119  254 1
 242  120  255 1
 243  121  122 2
 244  121  137 1
 245  123  124 1
 246  123  256 1
 247  123  257 1
 248  123  258 1
 249  124  125 1
 250  124  259 1
 251  124  260 1
 252  125  126 1
 253  125  261 1
 254  125  262 1
 255  126  127 1
 256  126  263 1
 257  126  264 1
 258  127  128 1
 259  127  265 1
 260  127  266 1
 261  128  129 1
 262  128  267 1
 263  128  268 1
 264  129  130 1
 265  129  269 1
 266  129  270 1
 267  130  131 1
 268  130  271 1
 269  130  272 1
 270  131  132 1
 271  131  273 1
 272  131  274 1
 273  132  133 1
 274  132  275 1
 275  132  276 1
 276  133  134 1
 277  133  277 1
 278  133  278 1
 279  134  135 1
 280  134  279 1
 281  134  280 1
 282  135  136 1
 283  135  281 1
 284  135  282 1
 285  136  137 1
 286  136  283 1
 287  136  284 1
 288  137  285 1
 289  137  286 1

#	End of record

