#	Name: ASD03731514
#	Creating user name:	WinNT
#	Creation time:	15. 06. 2019 20:45

#	Modifying user name:	WinNT
#	Modification time:	15. 06. 2019 20:45

#	Program:	/corina/corina34_cracker 3.40 0067  02.08.2006

@<TRIPOS>MOLECULE
ASD03731514
  55   60    0    0    0
SMALL
NO_CHARGES


@<TRIPOS>ATOM
   1 C1            -0.0179     1.4712     0.0101 C.2     
   2 C2             0.0021    -0.0041     0.0020 C.ar    
   3 C3             0.0232    -0.7140     1.2074 C.ar    
   4 C4             0.0413    -2.0960     1.1905 C.ar    
   5 C5             0.0392    -2.7769    -0.0132 C.ar    
   6 C6             0.0184    -2.0831    -1.2094 C.ar    
   7 C7            -0.0058    -0.7011    -1.2110 C.ar    
   8 O8             1.0267     2.0934     0.0035 O.2     
   9 N9            -1.1942     2.1291     0.0193 N.am    
  10 C10           -1.2140     3.5940     0.0273 C.3     
  11 C11           -2.6633     4.0843     0.0369 C.3     
  12 C12           -2.6840     5.6142     0.0453 C.3     
  13 O13           -8.8975     2.7077     2.1987 O.3     
  14 C14          -10.3145     2.7612     2.4479 C.3     
  15 O15          -10.5197     4.0856     2.9742 O.3     
  16 C16           -9.5161     4.8478     2.4482 C.ar    
  17 C17           -8.5185     4.0000     1.9724 C.ar    
  18 C18           -9.3712     6.2188     2.3342 C.ar    
  19 C19           -8.2318     6.7610     1.7474 C.ar    
  20 C20           -7.2383     5.9042     1.2833 C.ar    
  21 C21           -7.3825     4.5366     1.3900 C.ar    
  22 O22           -7.9028     8.0657     1.5241 O.3     
  23 C23           -6.1399     6.7768     0.7376 C.3     
  24 C24           -6.4842     8.1652     1.2937 C.3     
  25 N25           -4.0717     6.0837     0.0544 N.am    
  26 C26           -4.7791     6.3192     1.1775 C.2     
  27 C27           -6.0966     6.7696    -0.7617 C.ar    
  28 C28           -7.0122     7.0825    -1.7415 C.ar    
  29 C29           -6.6638     6.9731    -3.0759 C.ar    
  30 C30           -5.3943     6.5481    -3.4232 C.ar    
  31 C31           -4.4740     6.2326    -2.4455 C.ar    
  32 C32           -4.8158     6.3402    -1.0997 C.ar    
  33 O33           -4.3921     6.1877     2.3194 O.2     
  34 F34           -0.0318    -0.0252    -2.3805 F       
  35 F35            0.0262    -0.0507     2.3843 F       
  36 H36            0.0576    -2.6456     2.1201 H       
  37 H37            0.0542    -3.8568    -0.0192 H       
  38 H38            0.0172    -2.6227    -2.1450 H       
  39 H39           -2.0275     1.6328     0.0205 H       
  40 H40           -0.7010     3.9594     0.9169 H       
  41 H41           -0.7094     3.9691    -0.8630 H       
  42 H42           -3.1764     3.7189    -0.8527 H       
  43 H43           -3.1679     3.7092     0.9272 H       
  44 H44           -2.1710     5.9796     0.9349 H       
  45 H45           -2.1794     5.9893    -0.8451 H       
  46 H46          -10.8718     2.6270     1.5208 H       
  47 H47          -10.6030     2.0086     3.1816 H       
  48 H48          -10.1476     6.8727     2.7030 H       
  49 H49           -6.6074     3.8827     1.0187 H       
  50 H50           -6.2646     8.9413     0.5605 H       
  51 H51           -5.9526     8.3512     2.2269 H       
  52 H52           -8.0030     7.4139    -1.4680 H       
  53 H53           -7.3814     7.2192    -3.8446 H       
  54 H54           -5.1224     6.4626    -4.4649 H       
  55 H55           -3.4848     5.9009    -2.7246 H       
@<TRIPOS>BOND
   1    1    2 1
   2    1    8 2
   3    1    9 am
   4    2    3 ar
   5    2    7 ar
   6    3    4 ar
   7    3   35 1
   8    4    5 ar
   9    4   36 1
  10    5    6 ar
  11    5   37 1
  12    6    7 ar
  13    6   38 1
  14    7   34 1
  15    9   10 1
  16    9   39 1
  17   10   11 1
  18   10   40 1
  19   10   41 1
  20   11   12 1
  21   11   42 1
  22   11   43 1
  23   12   25 1
  24   12   44 1
  25   12   45 1
  26   13   14 1
  27   13   17 1
  28   14   15 1
  29   14   46 1
  30   14   47 1
  31   15   16 1
  32   16   17 ar
  33   16   18 ar
  34   17   21 ar
  35   18   19 ar
  36   18   48 1
  37   19   20 ar
  38   19   22 1
  39   20   21 ar
  40   20   23 1
  41   21   49 1
  42   22   24 1
  43   23   24 1
  44   23   26 1
  45   23   27 1
  46   24   50 1
  47   24   51 1
  48   25   26 am
  49   25   32 1
  50   26   33 2
  51   27   28 ar
  52   27   32 ar
  53   28   29 ar
  54   28   52 1
  55   29   30 ar
  56   29   53 1
  57   30   31 ar
  58   30   54 1
  59   31   32 ar
  60   31   55 1

#	End of record

