#	Name: ASD00310284
#	Creating user name:	WinNT
#	Creation time:	15. 06. 2019 18:34

#	Modifying user name:	WinNT
#	Modification time:	15. 06. 2019 18:34

#	Program:	/corina/corina34_cracker 3.40 0067  02.08.2006

@<TRIPOS>MOLECULE
ASD00310284
  34   35    0    0    0
SMALL
NO_CHARGES


@<TRIPOS>ATOM
   1 N1            -0.0161     1.3345     0.0094 N.am    
   2 C2             0.0021    -0.0041     0.0020 C.2     
   3 C3             1.2829    -0.7910     0.0278 C.3     
   4 O4             2.3811     0.0596    -0.3104 O.3     
   5 C5             2.3946     1.2802     0.4391 C.3     
   6 C6             1.2047     2.1370     0.0020 C.3     
   7 O7            -1.0521    -0.6032    -0.0260 O.2     
   8 C8            -1.3102     2.0211     0.0192 C.3     
   9 C9            -1.7539     2.2523     1.4650 C.3     
  10 C10           -3.1054     2.9695     1.4753 C.3     
  11 O11           -3.5199     3.1854     2.8257 O.3     
  12 C12           -4.7093     3.8160     3.0128 C.ar    
  13 C13           -5.1725     4.0580     4.2978 C.ar    
  14 C14           -6.3817     4.6990     4.4857 C.ar    
  15 C15           -7.1307     5.0991     3.3936 C.ar    
  16 C16           -6.6705     4.8587     2.1113 C.ar    
  17 C17           -5.4590     4.2235     1.9190 C.ar    
  18 Br18          -8.7862     5.9753     3.6539 Br      
  19 H19            1.4362    -1.2011     1.0260 H       
  20 H20            1.2214    -1.6069    -0.6924 H       
  21 H21            2.3130     1.0571     1.5029 H       
  22 H22            3.3230     1.8178     0.2459 H       
  23 H23            1.3822     2.5167    -1.0042 H       
  24 H24            1.0907     2.9756     0.6890 H       
  25 H25           -1.2163     2.9804    -0.4899 H       
  26 H26           -2.0507     1.4081    -0.4945 H       
  27 H27           -1.8477     1.2931     1.9741 H       
  28 H28           -1.0134     2.8654     1.9787 H       
  29 H29           -3.0116     3.9287     0.9662 H       
  30 H30           -3.8459     2.3564     0.9615 H       
  31 H31           -4.5885     3.7452     5.1506 H       
  32 H32           -6.7427     4.8876     5.4860 H       
  33 H33           -7.2568     5.1719     1.2600 H       
  34 H34           -5.0979     4.0400     0.9178 H       
@<TRIPOS>BOND
   1    1    2 am
   2    1    6 1
   3    1    8 1
   4    2    3 1
   5    2    7 2
   6    3    4 1
   7    3   19 1
   8    3   20 1
   9    4    5 1
  10    5    6 1
  11    5   21 1
  12    5   22 1
  13    6   23 1
  14    6   24 1
  15    8    9 1
  16    8   25 1
  17    8   26 1
  18    9   10 1
  19    9   27 1
  20    9   28 1
  21   10   11 1
  22   10   29 1
  23   10   30 1
  24   11   12 1
  25   12   13 ar
  26   12   17 ar
  27   13   14 ar
  28   13   31 1
  29   14   15 ar
  30   14   32 1
  31   15   16 ar
  32   15   18 1
  33   16   17 ar
  34   16   33 1
  35   17   34 1

#	End of record

