#	Name: ASD05490079
#	Creating user name:	WinNT
#	Creation time:	15. 06. 2019 21:01

#	Modifying user name:	WinNT
#	Modification time:	15. 06. 2019 21:01

#	Program:	/corina/corina34_cracker 3.40 0067  02.08.2006

@<TRIPOS>MOLECULE
ASD05490079
  64   68    0    0    0
SMALL
NO_CHARGES


@<TRIPOS>ATOM
   1 N1            -0.0178     1.4608     0.0101 N.am    
   2 O2             4.5863     2.8161    -0.0262 O.3     
   3 N3             2.8511     4.3368    -0.0011 N.ar    
   4 C4             1.5540     4.6376     0.0125 C.ar    
   5 C5             3.2565     3.0770    -0.0125 C.ar    
   6 N6             2.4054     2.0644    -0.0098 N.ar    
   7 C7             1.0946     2.2826     0.0039 C.ar    
   8 C8             0.6266     3.5971     0.0154 C.ar    
   9 N9             1.1342     5.9598     0.0241 N.pl3   
  10 C10           -1.1223     2.2312     0.0189 C.2     
  11 N11           -0.7663     3.5310     0.0284 N.am    
  12 C12            5.4681     3.9405    -0.0273 C.3     
  13 C13            6.9178     3.4518    -0.0435 C.3     
  14 O14            7.1762     2.7676    -1.2712 O.3     
  15 C15            8.5098     2.2679    -1.3886 C.3     
  16 O16           -2.2665     1.8171     0.0260 O.2     
  17 C17            0.0021    -0.0041     0.0020 C.3     
  18 C18            0.0225    -0.5140     1.4200 C.ar    
  19 C19           -1.1675    -0.7634     2.0797 C.ar    
  20 C20           -1.1548    -1.2301     3.3785 C.ar    
  21 C21            0.0599    -1.4503     4.0251 C.ar    
  22 C22            1.2557    -1.1977     3.3555 C.ar    
  23 C23            1.2311    -0.7362     2.0550 C.ar    
  24 C24            0.0799    -1.9513     5.4212 C.ar    
  25 C25            1.2991    -2.1686     6.0599 C.ar    
  26 N26           -1.0630    -2.1836     6.0532 N.ar    
  27 C27           -1.0886    -2.6288     7.2931 C.ar    
  28 C28            0.0837    -2.8713     7.9845 C.ar    
  29 C29            1.3019    -2.6363     7.3625 C.ar    
  30 C30            0.0392    -3.3800     9.4024 C.3     
  31 N31            0.0307    -4.8489     9.3957 N.3     
  32 C32            0.2269    -5.3847    10.7552 C.3     
  33 C33           -0.9780    -6.2977    11.0651 C.3     
  34 C34           -1.5010    -6.6770     9.6547 C.3     
  35 C35           -1.2473    -5.3689     8.8646 C.3     
  36 H36            1.7881     6.6762     0.0223 H       
  37 H37            0.1868     6.1678     0.0340 H       
  38 H38           -1.3727     4.2880     0.0359 H       
  39 H39            5.2799     4.5490    -0.9119 H       
  40 H40            5.2961     4.5380     0.8679 H       
  41 H41            7.5900     4.3052     0.0452 H       
  42 H42            7.0814     2.7720     0.7927 H       
  43 H43            8.6252     1.7622    -2.3473 H       
  44 H44            9.2150     3.0968    -1.3278 H       
  45 H45            8.7064     1.5636    -0.5803 H       
  46 H46           -0.8878    -0.3767    -0.5053 H       
  47 H47            0.8920    -0.3525    -0.5222 H       
  48 H48           -2.1083    -0.5924     1.5776 H       
  49 H49           -2.0845    -1.4238     3.8928 H       
  50 H50            2.1998    -1.3663     3.8520 H       
  51 H51            2.1571    -0.5400     1.5351 H       
  52 H52            2.2289    -1.9753     5.5455 H       
  53 H53           -2.0383    -2.8062     7.7759 H       
  54 H54            2.2312    -2.8181     7.8818 H       
  55 H55            0.9159    -3.0242     9.9437 H       
  56 H56           -0.8633    -3.0137     9.8917 H       
  57 H57            1.1502    -5.9626    10.7964 H       
  58 H58            0.2667    -4.5664    11.4741 H       
  59 H59           -0.6583    -7.1862    11.6095 H       
  60 H60           -1.7392    -5.7544    11.6251 H       
  61 H61           -0.9280    -7.5039     9.2351 H       
  62 H62           -2.5641    -6.9158     9.6836 H       
  63 H63           -2.0513    -4.6552     9.0442 H       
  64 H64           -1.1575    -5.5805     7.7991 H       
@<TRIPOS>BOND
   1    1   17 1
   2    1    7 1
   3    1   10 am
   4    2   12 1
   5    2    5 1
   6    3    4 ar
   7    3    5 ar
   8    4    9 1
   9    4    8 ar
  10    5    6 ar
  11    6    7 ar
  12    7    8 ar
  13    8   11 1
  14    9   36 1
  15    9   37 1
  16   10   11 am
  17   10   16 2
  18   11   38 1
  19   12   13 1
  20   12   39 1
  21   12   40 1
  22   13   14 1
  23   13   41 1
  24   13   42 1
  25   14   15 1
  26   15   43 1
  27   15   44 1
  28   15   45 1
  29   17   18 1
  30   17   46 1
  31   17   47 1
  32   18   19 ar
  33   18   23 ar
  34   19   20 ar
  35   19   48 1
  36   20   21 ar
  37   20   49 1
  38   21   22 ar
  39   21   24 1
  40   22   23 ar
  41   22   50 1
  42   23   51 1
  43   24   25 ar
  44   24   26 ar
  45   25   29 ar
  46   25   52 1
  47   26   27 ar
  48   27   28 ar
  49   27   53 1
  50   28   29 ar
  51   28   30 1
  52   29   54 1
  53   30   31 1
  54   30   55 1
  55   30   56 1
  56   31   32 1
  57   31   35 1
  58   32   33 1
  59   32   57 1
  60   32   58 1
  61   33   34 1
  62   33   59 1
  63   33   60 1
  64   34   35 1
  65   34   61 1
  66   34   62 1
  67   35   63 1
  68   35   64 1

#	End of record

