#	Name: ASD01580005
#	Creating user name:	WinNT
#	Creation time:	15. 06. 2019 19:22

#	Modifying user name:	WinNT
#	Modification time:	15. 06. 2019 19:22

#	Program:	/corina/corina34_cracker 3.40 0067  02.08.2006

@<TRIPOS>MOLECULE
ASD01580005
  35   37    0    0    0
SMALL
NO_CHARGES


@<TRIPOS>ATOM
   1 N1            -0.1020     1.3853    -0.4496 N.pl3   
   2 C2            -0.0304     0.0118    -0.1876 C.2     
   3 C3             1.2578    -0.6824    -0.2636 C.2     
   4 O4             1.3200    -1.8767    -0.0357 O.2     
   5 C5            -1.1548    -0.6770     0.1370 C.2     
   6 C6            -2.4060     0.0390     0.3801 C.2     
   7 C7            -3.6453    -0.5166     0.6220 C.2     
   8 N8            -2.5844     1.4076     0.4198 N.pl3   
   9 C9            -3.8911     1.6300     0.6721 C.2     
  10 N10           -4.5111     0.4853     0.7903 N.2     
  11 C11            7.1396     0.1148     0.2915 C.ar    
  12 N12            2.3737     0.0012    -0.5857 N.am    
  13 C13            8.3337    -0.5377     0.3147 C.ar    
  14 C14            8.4258    -1.8782    -0.0555 C.ar    
  15 C15            7.3247    -2.5737    -0.4506 C.ar    
  16 C16            6.0736    -1.9344    -0.4872 C.ar    
  17 C17            4.9169    -2.6236    -0.8908 C.ar    
  18 C18            3.7196    -1.9805    -0.9177 C.ar    
  19 C19            3.6178    -0.6342    -0.5478 C.ar    
  20 C20            4.7316     0.0709    -0.1473 C.ar    
  21 C21            5.9799    -0.5707    -0.1109 C.ar    
  22 H22            0.6419     1.9628    -0.2172 H       
  23 H23           -0.8939     1.7588    -0.8671 H       
  24 H24           -1.1247    -1.7537     0.2155 H       
  25 H25           -3.8738    -1.5712     0.6666 H       
  26 H26           -1.8994     2.0822     0.2912 H       
  27 H27           -4.3521     2.6022     0.7653 H       
  28 H28            7.0824     1.1526     0.5850 H       
  29 H29            2.3134     0.9343    -0.8438 H       
  30 H30            9.2230    -0.0088     0.6242 H       
  31 H31            9.3857    -2.3724    -0.0289 H       
  32 H32            7.4119    -3.6119    -0.7349 H       
  33 H33            4.9794    -3.6623    -1.1797 H       
  34 H34            2.8346    -2.5155    -1.2291 H       
  35 H35            4.6451     1.1093     0.1370 H       
@<TRIPOS>BOND
   1    1    2 1
   2    1   22 1
   3    1   23 1
   4    2    3 1
   5    2    5 2
   6    3    4 2
   7    3   12 am
   8    5    6 1
   9    5   24 1
  10    6    7 2
  11    6    8 1
  12    7   10 1
  13    7   25 1
  14    8    9 1
  15    8   26 1
  16    9   10 2
  17    9   27 1
  18   11   13 ar
  19   11   21 ar
  20   11   28 1
  21   12   19 1
  22   12   29 1
  23   13   14 ar
  24   13   30 1
  25   14   15 ar
  26   14   31 1
  27   15   16 ar
  28   15   32 1
  29   16   17 ar
  30   16   21 ar
  31   17   18 ar
  32   17   33 1
  33   18   19 ar
  34   18   34 1
  35   19   20 ar
  36   20   21 ar
  37   20   35 1

#	End of record

