#	Name: ASD01680124
#	Creating user name:	WinNT
#	Creation time:	15. 06. 2019 19:22

#	Modifying user name:	WinNT
#	Modification time:	15. 06. 2019 19:22

#	Program:	/corina/corina34_cracker 3.40 0067  02.08.2006

@<TRIPOS>MOLECULE
ASD01680124
  94   99    0    0    0
SMALL
NO_CHARGES


@<TRIPOS>ATOM
   1 C1            -0.5961     1.1214    -0.1339 C.2     
   2 C2            -0.4970    -0.3697     0.0607 C.3     
   3 C3            -1.3134    -1.0806    -1.0205 C.3     
   4 O4             0.4021     1.7724    -0.3327 O.2     
   5 O5            -1.7941     1.7255    -0.0920 O.3     
   6 N6             0.9053    -0.7826    -0.0356 N.am    
   7 S7             1.8181    -0.9408     1.3371 S.o2    
   8 O8             3.1022    -1.3807     0.9166 O.2     
   9 O9             1.6118     0.2436     2.0947 O.2     
  10 C10            1.1232    -2.2597     2.2764 C.ar    
  11 C11            0.2673    -1.9843     3.3264 C.ar    
  12 C12           -0.2778    -3.0190     4.0633 C.ar    
  13 C13            0.0326    -4.3291     3.7499 C.ar    
  14 C14            0.8877    -4.6045     2.6993 C.ar    
  15 C15            1.4294    -3.5699     1.9596 C.ar    
  16 C16            2.3576    -3.8703     0.8110 C.3     
  17 C17           -0.5609    -5.4571     4.5540 C.3     
  18 C18           -0.0710    -0.5561     3.6681 C.3     
  19 N19           -1.1214    -2.5283    -0.9047 N.am    
  20 C20           -1.7477    -3.3617    -1.7589 C.2     
  21 O21           -2.4703    -2.9131    -2.6235 O.2     
  22 C22           -1.5502    -4.8509    -1.6397 C.3     
  23 O23           -2.3127    -5.5149    -2.6496 O.3     
  24 N24           -4.4943    -7.6139    -2.6043 N.am    
  25 C25           -3.2995    -7.5718    -1.7417 C.3     
  26 C26           -2.1951    -6.9388    -2.6246 C.3     
  27 C27           -2.5199    -7.5481    -4.0141 C.3     
  28 C28           -4.0616    -7.6175    -4.0093 C.3     
  29 C29           -4.5266    -8.9044    -4.6938 C.3     
  30 N30           -4.0622   -10.0617    -3.9249 N.pl3   
  31 C31           -4.4482   -11.3440    -4.2976 C.ar    
  32 C32           -5.2759   -11.5213    -5.4019 C.ar    
  33 C33           -5.6522   -12.8026    -5.7615 C.ar    
  34 C34           -5.1865   -13.8680    -5.0019 C.ar    
  35 C35           -4.3681   -13.6192    -3.9186 C.ar    
  36 N36           -4.0207   -12.3861    -3.6018 N.ar    
  37 S37           -6.0637    -7.6573    -2.0776 S.o2    
  38 O38           -6.8053    -8.3360    -3.0819 O.2     
  39 O39           -6.0206    -8.0826    -0.7224 O.2     
  40 C40           -7.2478    -5.4946    -3.1724 C.ar    
  41 C41           -6.6540    -5.9972    -2.0597 C.ar    
  42 C42           -6.4994    -5.2338    -0.9024 C.ar    
  43 C43           -6.9350    -3.9498    -0.8307 C.ar    
  44 C44           -7.5617    -3.3635    -1.9510 C.ar    
  45 C45           -8.0213    -2.0481    -1.9121 C.ar    
  46 C46           -8.6360    -1.5008    -3.0364 C.ar    
  47 C47           -9.1122    -0.1718    -3.0323 C.ar    
  48 C48           -9.7053     0.3305    -4.1450 C.ar    
  49 C49           -9.8598    -0.4332    -5.3026 C.ar    
  50 C50           -9.4252    -1.7171    -5.3739 C.ar    
  51 C51           -8.7984    -2.3035    -4.2531 C.ar    
  52 C52           -8.3404    -3.6189    -4.2918 C.ar    
  53 C53           -7.7242    -4.1662    -3.1677 C.ar    
  54 H54           -0.8870    -0.6346     1.0435 H       
  55 H55           -2.3695    -0.8428    -0.8936 H       
  56 H56           -0.9816    -0.7477    -2.0040 H       
  57 H57           -1.8074     2.6836    -0.2223 H       
  58 H58            1.2992    -0.9633    -0.9034 H       
  59 H59           -0.9459    -2.8039     4.8842 H       
  60 H60            1.1305    -5.6281     2.4547 H       
  61 H61            3.3908    -3.8064     1.1525 H       
  62 H62            2.1600    -4.8750     0.4374 H       
  63 H63            2.1934    -3.1468     0.0125 H       
  64 H64           -1.5054    -5.7653     4.1055 H       
  65 H65            0.1298    -6.3003     4.5618 H       
  66 H66           -0.7364    -5.1216     5.5761 H       
  67 H67           -0.7424    -0.1507     2.9111 H       
  68 H68           -0.5586    -0.5213     4.6423 H       
  69 H69            0.8432     0.0367     3.6979 H       
  70 H70           -0.5435    -2.8871    -0.2131 H       
  71 H71           -0.4941    -5.0887    -1.7667 H       
  72 H72           -1.8820    -5.1839    -0.6562 H       
  73 H73           -3.4861    -6.9515    -0.8650 H       
  74 H74           -3.0132    -8.5795    -1.4406 H       
  75 H75           -1.2038    -7.2410    -2.2869 H       
  76 H76           -2.1656    -6.8968    -4.8131 H       
  77 H77           -2.0893    -8.5450    -4.1083 H       
  78 H78           -4.4733    -6.7506    -4.5262 H       
  79 H79           -5.6153    -8.9155    -4.7452 H       
  80 H80           -4.1148    -8.9490    -5.7020 H       
  81 H81           -3.4853    -9.9332    -3.1558 H       
  82 H82           -5.6200   -10.6699    -5.9703 H       
  83 H83           -6.2940   -12.9709    -6.6136 H       
  84 H84           -5.4623   -14.8808    -5.2560 H       
  85 H85           -4.0038   -14.4448    -3.3252 H       
  86 H86           -7.3508    -6.1058    -4.0568 H       
  87 H87           -6.0211    -5.6758    -0.0409 H       
  88 H88           -6.8030    -3.3811     0.0779 H       
  89 H89           -7.9020    -1.4571    -1.0160 H       
  90 H90           -9.0056     0.4410    -2.1494 H       
  91 H91          -10.0674     1.3480    -4.1341 H       
  92 H92          -10.3381     0.0087    -6.1642 H       
  93 H93           -9.5581    -2.2863    -6.2821 H       
  94 H94           -8.4601    -4.2100    -5.1878 H       
@<TRIPOS>BOND
   1    1    2 1
   2    1    4 2
   3    1    5 1
   4    2    3 1
   5    2    6 1
   6    2   54 1
   7    3   19 1
   8    3   55 1
   9    3   56 1
  10    5   57 1
  11    6    7 am
  12    6   58 1
  13    7    8 2
  14    7    9 2
  15    7   10 1
  16   10   11 ar
  17   10   15 ar
  18   11   12 ar
  19   11   18 1
  20   12   13 ar
  21   12   59 1
  22   13   14 ar
  23   13   17 1
  24   14   15 ar
  25   14   60 1
  26   15   16 1
  27   16   61 1
  28   16   62 1
  29   16   63 1
  30   17   64 1
  31   17   65 1
  32   17   66 1
  33   18   67 1
  34   18   68 1
  35   18   69 1
  36   19   20 am
  37   19   70 1
  38   20   21 2
  39   20   22 1
  40   22   23 1
  41   22   71 1
  42   22   72 1
  43   23   26 1
  44   24   25 1
  45   24   28 1
  46   24   37 am
  47   25   26 1
  48   25   73 1
  49   25   74 1
  50   26   27 1
  51   26   75 1
  52   27   28 1
  53   27   76 1
  54   27   77 1
  55   28   29 1
  56   28   78 1
  57   29   30 1
  58   29   79 1
  59   29   80 1
  60   30   31 1
  61   30   81 1
  62   31   32 ar
  63   31   36 ar
  64   32   33 ar
  65   32   82 1
  66   33   34 ar
  67   33   83 1
  68   34   35 ar
  69   34   84 1
  70   35   36 ar
  71   35   85 1
  72   37   38 2
  73   37   39 2
  74   37   41 1
  75   40   41 ar
  76   40   53 ar
  77   40   86 1
  78   41   42 ar
  79   42   43 ar
  80   42   87 1
  81   43   44 ar
  82   43   88 1
  83   44   45 ar
  84   44   53 ar
  85   45   46 ar
  86   45   89 1
  87   46   47 ar
  88   46   51 ar
  89   47   48 ar
  90   47   90 1
  91   48   49 ar
  92   48   91 1
  93   49   50 ar
  94   49   92 1
  95   50   51 ar
  96   50   93 1
  97   51   52 ar
  98   52   53 ar
  99   52   94 1

#	End of record

