#	Name: ASD01812154
#	Creating user name:	WinNT
#	Creation time:	15. 06. 2019 19:28

#	Modifying user name:	WinNT
#	Modification time:	15. 06. 2019 19:28

#	Program:	/corina/corina34_cracker 3.40 0067  02.08.2006

@<TRIPOS>MOLECULE
ASD01812154
  58   62    0    0    0
SMALL
NO_CHARGES


@<TRIPOS>ATOM
   1 C1            -0.0159     1.3744     0.2935 C.ar    
   2 C2             0.0082    -0.0186     0.2874 C.ar    
   3 C3             1.1828    -0.6994     0.1810 C.ar    
   4 C4             2.3907     0.0084     0.0751 C.ar    
   5 C5             2.3669     1.4275     0.0808 C.ar    
   6 C6             1.1344     2.0950     0.1929 C.ar    
   7 C7             3.6216    -0.6639    -0.0367 C.ar    
   8 C8             4.7771     0.0396    -0.1384 C.ar    
   9 C9             4.7701     1.4484    -0.1338 C.ar    
  10 C10            3.5703     2.1335    -0.0252 C.ar    
  11 C11            3.6565    -2.1704    -0.0431 C.3     
  12 C12            5.8618     2.4375    -0.2286 C.2     
  13 N13            5.3662     3.6859    -0.1808 N.am    
  14 C14            3.9069     3.6032    -0.0510 C.3     
  15 O15            7.0411     2.1620    -0.3344 O.2     
  16 C16            6.1509     4.9212    -0.2475 C.3     
  17 C17            6.9180     4.9674    -1.5704 C.3     
  18 C18            7.7375     6.2576    -1.6400 C.3     
  19 C19            8.7279     6.2962    -0.4745 C.3     
  20 C20            7.9607     6.2500     0.8484 C.3     
  21 C21            7.1413     4.9599     0.9181 C.3     
  22 O22            5.9930     4.9313    -2.6590 O.3     
  23 N23            3.4387    -2.6710     1.3207 N.3     
  24 C24            3.8660    -4.4588     2.8593 C.3     
  25 C25            4.4634    -3.1572     3.4325 C.3     
  26 C26            4.4880    -2.1704     2.2456 C.3     
  27 C27            3.5799    -4.1489     1.3742 C.3     
  28 C28            2.2821    -4.8255     0.9284 C.3     
  29 F29            1.9842    -4.4437    -0.3841 F       
  30 F30            2.4366    -6.2147     0.9862 F       
  31 F31            1.2387    -4.4367     1.7754 F       
  32 H32           -0.9614     1.8900     0.3748 H       
  33 H33           -0.9188    -0.5668     0.3686 H       
  34 H34            1.1852    -1.7794     0.1784 H       
  35 H35            1.1005     3.1745     0.1983 H       
  36 H36            5.7157    -0.4878    -0.2237 H       
  37 H37            2.8725    -2.5493    -0.6987 H       
  38 H38            4.6275    -2.5098    -0.4039 H       
  39 H39            3.4269     4.0828    -0.9040 H       
  40 H40            3.5856     4.0777     0.8762 H       
  41 H41            5.4825     5.7800    -0.1849 H       
  42 H42            7.5864     4.1086    -1.6330 H       
  43 H43            8.2840     6.2905    -2.5825 H       
  44 H44            7.0691     7.1163    -1.5775 H       
  45 H45            9.3963     5.4374    -0.5371 H       
  46 H46            9.3117     7.2153    -0.5241 H       
  47 H47            8.6664     6.2775     1.6788 H       
  48 H48            7.2924     7.1088     0.9110 H       
  49 H49            6.5947     4.9270     1.8605 H       
  50 H50            7.8097     4.1011     0.8555 H       
  51 H51            6.4104     4.9575    -3.5309 H       
  52 H52            4.5840    -5.2745     2.9443 H       
  53 H53            2.9414    -4.7117     3.3782 H       
  54 H54            3.8320    -2.7712     4.2328 H       
  55 H55            5.4746    -3.3340     3.7989 H       
  56 H56            5.4629    -2.1859     1.7584 H       
  57 H57            4.2471    -1.1627     2.5840 H       
  58 H58            4.4115    -4.4743     0.7491 H       
@<TRIPOS>BOND
   1    1    2 ar
   2    1    6 ar
   3    1   32 1
   4    2    3 ar
   5    2   33 1
   6    3    4 ar
   7    3   34 1
   8    4    5 ar
   9    4    7 ar
  10    5    6 ar
  11    5   10 ar
  12    6   35 1
  13    7    8 ar
  14    7   11 1
  15    8    9 ar
  16    8   36 1
  17    9   10 ar
  18    9   12 1
  19   10   14 1
  20   11   23 1
  21   11   37 1
  22   11   38 1
  23   12   13 am
  24   12   15 2
  25   13   14 1
  26   13   16 1
  27   14   39 1
  28   14   40 1
  29   16   17 1
  30   16   21 1
  31   16   41 1
  32   17   18 1
  33   17   22 1
  34   17   42 1
  35   18   19 1
  36   18   43 1
  37   18   44 1
  38   19   20 1
  39   19   45 1
  40   19   46 1
  41   20   21 1
  42   20   47 1
  43   20   48 1
  44   21   49 1
  45   21   50 1
  46   22   51 1
  47   23   27 1
  48   23   26 1
  49   24   25 1
  50   24   27 1
  51   24   52 1
  52   24   53 1
  53   25   26 1
  54   25   54 1
  55   25   55 1
  56   26   56 1
  57   26   57 1
  58   27   28 1
  59   27   58 1
  60   28   29 1
  61   28   30 1
  62   28   31 1

#	End of record

