#	Name: ASD01910756
#	Creating user name:	WinNT
#	Creation time:	15. 06. 2019 19:56

#	Modifying user name:	WinNT
#	Modification time:	15. 06. 2019 19:56

#	Program:	/corina/corina34_cracker 3.40 0067  02.08.2006

@<TRIPOS>MOLECULE
ASD01910756
  53   56    0    0    0
SMALL
NO_CHARGES


@<TRIPOS>ATOM
   1 C1            -0.1161     1.7495     0.3956 C.ar    
   2 C2            -0.0218     0.3700     0.4076 C.ar    
   3 C3            -1.1653    -0.4024     0.3537 C.ar    
   4 C4            -2.4114     0.2080     0.2873 C.ar    
   5 C5            -2.5026     1.5940     0.2754 C.ar    
   6 C6            -1.3553     2.3605     0.3353 C.ar    
   7 N7            -3.5699    -0.5702     0.2322 N.3     
   8 C8            -4.7694     0.2753     0.1670 C.3     
   9 C9            -5.9994    -0.6064    -0.0740 C.3     
  10 N10           -6.0324    -1.6542     0.9575 N.am    
  11 C11           -4.8177    -2.4542     1.1761 C.3     
  12 C12           -3.6343    -1.4997     1.3679 C.3     
  13 C13           -7.1462    -1.8753     1.6836 C.2     
  14 C14           -7.2001    -3.0126     2.6271 C.ar    
  15 O15           -8.1063    -1.1397     1.5629 O.2     
  16 C16           -7.8235    -2.8634     3.8680 C.ar    
  17 C17           -7.8756    -3.9242     4.7509 C.ar    
  18 C18           -7.3129    -5.1388     4.4146 C.ar    
  19 C19           -6.6854    -5.3028     3.1757 C.ar    
  20 C20           -6.6343    -4.2367     2.2777 C.ar    
  21 C21           -6.1015    -6.5632     2.8278 C.1     
  22 C22           -5.6228    -7.5965     2.5426 C.1     
  23 C23           -5.0389    -8.8569     2.1948 C.ar    
  24 C24           -4.4116    -9.0224     0.9571 C.ar    
  25 C25           -3.8510   -10.2391     0.6292 C.ar    
  26 C26           -3.9090   -11.2946     1.5221 C.ar    
  27 C27           -4.5290   -11.1383     2.7494 C.ar    
  28 C28           -5.0885    -9.9256     3.0936 C.ar    
  29 C29            1.1339     2.5892     0.4545 C.3     
  30 F30            1.5875     2.8420    -0.8445 F       
  31 F31            0.8520     3.8010     1.0942 F       
  32 F32            2.1227     1.9039     1.1686 F       
  33 H33            0.9474    -0.1040     0.4589 H       
  34 H34           -1.0909    -1.4798     0.3628 H       
  35 H35           -3.4698     2.0717     0.2238 H       
  36 H36           -1.4254     3.4381     0.3264 H       
  37 H37           -4.8865     0.8137     1.1075 H       
  38 H38           -4.6675     0.9888    -0.6507 H       
  39 H39           -6.9029    -0.0001    -0.0092 H       
  40 H40           -5.9331    -1.0655    -1.0604 H       
  41 H41           -4.9400    -3.0696     2.0674 H       
  42 H42           -4.6379    -3.0910     0.3099 H       
  43 H43           -2.7091    -2.0736     1.4211 H       
  44 H44           -3.7672    -0.9367     2.2917 H       
  45 H45           -8.2656    -1.9158     4.1381 H       
  46 H46           -8.3587    -3.8027     5.7091 H       
  47 H47           -7.3569    -5.9641     5.1099 H       
  48 H48           -6.1511    -4.3573     1.3194 H       
  49 H49           -4.3661    -8.1996     0.2590 H       
  50 H50           -3.3658   -10.3684    -0.3270 H       
  51 H51           -3.4686   -12.2452     1.2598 H       
  52 H52           -4.5711   -11.9668     3.4410 H       
  53 H53           -5.5721    -9.8051     4.0518 H       
@<TRIPOS>BOND
   1    1    2 ar
   2    1   29 1
   3    1    6 ar
   4    2    3 ar
   5    2   33 1
   6    3    4 ar
   7    3   34 1
   8    4    5 ar
   9    4    7 1
  10    5    6 ar
  11    5   35 1
  12    6   36 1
  13    7    8 1
  14    7   12 1
  15    8    9 1
  16    8   37 1
  17    8   38 1
  18    9   10 1
  19    9   39 1
  20    9   40 1
  21   10   11 1
  22   10   13 am
  23   11   12 1
  24   11   41 1
  25   11   42 1
  26   12   43 1
  27   12   44 1
  28   13   14 1
  29   13   15 2
  30   14   16 ar
  31   14   20 ar
  32   16   17 ar
  33   16   45 1
  34   17   18 ar
  35   17   46 1
  36   18   19 ar
  37   18   47 1
  38   19   20 ar
  39   19   21 1
  40   20   48 1
  41   21   22 3
  42   22   23 1
  43   23   24 ar
  44   23   28 ar
  45   24   25 ar
  46   24   49 1
  47   25   26 ar
  48   25   50 1
  49   26   27 ar
  50   26   51 1
  51   27   28 ar
  52   27   52 1
  53   28   53 1
  54   29   30 1
  55   29   31 1
  56   29   32 1

#	End of record

