#	Name: ASD01915485
#	Creating user name:	WinNT
#	Creation time:	15. 06. 2019 20:05

#	Modifying user name:	WinNT
#	Modification time:	15. 06. 2019 20:05

#	Program:	/corina/corina34_cracker 3.40 0067  02.08.2006

@<TRIPOS>MOLECULE
ASD01915485
  42   45    0    0    0
SMALL
NO_CHARGES


@<TRIPOS>ATOM
   1 C1            -0.0540     1.2493     0.2085 C.ar    
   2 C2             0.0037    -0.1130     0.4687 C.ar    
   3 N3             1.0399     1.9475    -0.0300 N.ar    
   4 C4             2.2325     1.3897    -0.0337 C.ar    
   5 C5             2.3749     0.0270     0.2351 C.ar    
   6 C6             1.2413    -0.7466     0.4849 C.ar    
   7 C7             3.4589     2.2074    -0.3496 C.3     
   8 C8             4.6537     1.6897     0.4467 C.3     
   9 N9             4.8025     0.2446     0.2895 N.am    
  10 C10            3.7268    -0.5659     0.2701 C.2     
  11 O11            3.8676    -1.7733     0.2817 O.2     
  12 O12           -1.1342    -0.8179     0.7050 O.3     
  13 C13           -2.3652    -0.0930     0.6710 C.3     
  14 C14           -3.5093    -1.0324     0.9534 C.ar    
  15 C15           -3.9321    -1.2353     2.2538 C.ar    
  16 C16           -4.1395    -1.6869    -0.0883 C.ar    
  17 C17           -5.1889    -2.5486     0.1707 C.ar    
  18 C18           -5.6078    -2.7562     1.4717 C.ar    
  19 C19           -4.9815    -2.0970     2.5129 C.ar    
  20 C20            6.0816    -0.3054     0.1567 C.ar    
  21 C21            6.9762    -0.2731     1.2184 C.ar    
  22 N22            8.1823    -0.7909     1.0971 N.ar    
  23 C23            8.5867    -1.3551    -0.0240 C.ar    
  24 C24            7.7532    -1.4255    -1.1250 C.ar    
  25 C25            6.4750    -0.8989    -1.0406 C.ar    
  26 H26           -1.0128     1.7463     0.1966 H       
  27 H27            1.3224    -1.8048     0.6850 H       
  28 H28            3.6764     2.1359    -1.4153 H       
  29 H29            3.2753     3.2498    -0.0892 H       
  30 H30            5.5594     2.1831     0.0943 H       
  31 H31            4.5082     1.9218     1.5017 H       
  32 H32           -2.3453     0.6926     1.4262 H       
  33 H33           -2.4967     0.3536    -0.3146 H       
  34 H34           -3.4424    -0.7208     3.0674 H       
  35 H35           -3.8123    -1.5248    -1.1047 H       
  36 H36           -5.6818    -3.0594    -0.6432 H       
  37 H37           -6.4279    -3.4291     1.6741 H       
  38 H38           -5.3087    -2.2591     3.5293 H       
  39 H39            6.6809     0.1811     2.1527 H       
  40 H40            9.5831    -1.7676    -0.0833 H       
  41 H41            8.0936    -1.8893    -2.0390 H       
  42 H42            5.8026    -0.9404    -1.8847 H       
@<TRIPOS>BOND
   1    1    2 ar
   2    1    3 ar
   3    1   26 1
   4    2   12 1
   5    2    6 ar
   6    3    4 ar
   7    4    5 ar
   8    4    7 1
   9    5    6 ar
  10    5   10 1
  11    6   27 1
  12    7    8 1
  13    7   28 1
  14    7   29 1
  15    8    9 1
  16    8   30 1
  17    8   31 1
  18    9   10 am
  19    9   20 1
  20   10   11 2
  21   12   13 1
  22   13   14 1
  23   13   32 1
  24   13   33 1
  25   14   15 ar
  26   14   16 ar
  27   15   19 ar
  28   15   34 1
  29   16   17 ar
  30   16   35 1
  31   17   18 ar
  32   17   36 1
  33   18   19 ar
  34   18   37 1
  35   19   38 1
  36   20   21 ar
  37   20   25 ar
  38   21   22 ar
  39   21   39 1
  40   22   23 ar
  41   23   24 ar
  42   23   40 1
  43   24   25 ar
  44   24   41 1
  45   25   42 1

#	End of record

