#	Name: ASD08780016
#	Creating user name:	WinNT
#	Creation time:	15. 06. 2019 21:19

#	Modifying user name:	WinNT
#	Modification time:	15. 06. 2019 21:19

#	Program:	/corina/corina34_cracker 3.40 0067  02.08.2006

@<TRIPOS>MOLECULE
ASD08780016
  29   29    0    0    0
SMALL
NO_CHARGES


@<TRIPOS>ATOM
   1 C1            -0.0184     1.2886    -0.6190 C.ar    
   2 C2             0.0014    -0.0333    -0.2139 C.ar    
   3 C3             1.2126    -0.6795    -0.0166 C.ar    
   4 C4             2.4068     0.0070    -0.2277 C.ar    
   5 C5             2.3782     1.3306    -0.6333 C.ar    
   6 C6             1.1665     1.9686    -0.8281 C.ar    
   7 S7            -1.5581     2.1059    -0.8763 S.o2    
   8 O8            -1.2986     3.1773    -1.7729 O.2     
   9 O9            -2.5141     1.0876    -1.1380 O.2     
  10 N10           -1.9932     2.7966     0.5645 N.am    
  11 O11            3.5975    -0.6215    -0.0353 O.3     
  12 C12            4.7780     0.1752    -0.1529 C.3     
  13 C13            5.9049    -0.4592     0.6648 C.3     
  14 C14            5.1961     0.2536    -1.6226 C.3     
  15 N15            1.2353    -2.0174     0.3939 N.pl3   
  16 H16           -0.9259    -0.5623    -0.0509 H       
  17 H17            3.3023     1.8650    -0.7973 H       
  18 H18            1.1462     3.0010    -1.1448 H       
  19 H19           -2.5226     3.6093     0.5724 H       
  20 H20           -1.7186     2.3885     1.4005 H       
  21 H21            4.5778     1.1789     0.2220 H       
  22 H22            6.1052    -1.4630     0.2899 H       
  23 H23            6.8054     0.1484     0.5751 H       
  24 H24            5.6071    -0.5151     1.7118 H       
  25 H25            5.3963    -0.7502    -1.9974 H       
  26 H26            4.3933     0.7055    -2.2051 H       
  27 H27            6.0966     0.8613    -1.7122 H       
  28 H28            0.4033    -2.4939     0.5408 H       
  29 H29            2.0832    -2.4681     0.5315 H       
@<TRIPOS>BOND
   1    1    2 ar
   2    1    6 ar
   3    1    7 1
   4    2    3 ar
   5    2   16 1
   6    3    4 ar
   7    3   15 1
   8    4    5 ar
   9    4   11 1
  10    5    6 ar
  11    5   17 1
  12    6   18 1
  13    7    8 2
  14    7    9 2
  15    7   10 am
  16   10   19 1
  17   10   20 1
  18   11   12 1
  19   12   13 1
  20   12   14 1
  21   12   21 1
  22   13   22 1
  23   13   23 1
  24   13   24 1
  25   14   25 1
  26   14   26 1
  27   14   27 1
  28   15   28 1
  29   15   29 1

#	End of record

