#	Name: ASD03091732
#	Creating user name:	WinNT
#	Creation time:	15. 06. 2019 20:31

#	Modifying user name:	WinNT
#	Modification time:	15. 06. 2019 20:31

#	Program:	/corina/corina34_cracker 3.40 0067  02.08.2006

@<TRIPOS>MOLECULE
ASD03091732
  33   35    0    0    0
SMALL
NO_CHARGES


@<TRIPOS>ATOM
   1 C1            -0.0188     1.5354     0.0105 C.3     
   2 C2             0.0021    -0.0041     0.0020 C.3     
   3 N3             0.0279    -0.4602     1.4021 N.3     
   4 C4             0.0781     0.7235     2.2834 C.3     
   5 C5            -0.5170     1.8802     1.4507 C.3     
   6 C6             0.2659     3.1734     1.7649 C.3     
   7 N7             1.5706     3.0168     1.1019 N.am    
   8 C8             1.4290     2.0576    -0.0005 C.3     
   9 C9             2.7084     3.6502     1.4495 C.2     
  10 O10            2.7100     4.4291     2.3854 O.2     
  11 C11            3.9400     3.4021     0.7031 C.2     
  12 C12            5.1675     3.9786     0.9498 C.2     
  13 O13            4.0778     2.5622    -0.3472 O.3     
  14 C14            5.3472     2.5921    -0.7765 C.2     
  15 C15            6.0538     3.4577     0.0011 C.2     
  16 N16            4.8923     1.0466    -2.4496 N.2     
  17 C17            5.2405     0.3189    -3.4429 C.2     
  18 O18            5.8457     1.8761    -1.8109 O.3     
  19 H19           -0.6324     1.9593    -0.7844 H       
  20 H20           -0.8919    -0.3828    -0.4934 H       
  21 H21            0.8918    -0.3585    -0.5184 H       
  22 H22           -0.7764    -1.0325     1.6108 H       
  23 H23           -0.5221     0.5543     3.1774 H       
  24 H24            1.1093     0.9470     2.5570 H       
  25 H25           -1.5995     1.9734     1.5378 H       
  26 H26           -0.2598     4.0393     1.3624 H       
  27 H27            0.4006     3.2803     2.8412 H       
  28 H28            2.1216     1.2279     0.1411 H       
  29 H29            1.6353     2.5530    -0.9493 H       
  30 H30            5.3998     4.6942     1.7246 H       
  31 H31            7.1023     3.6977    -0.0965 H       
  32 H32            6.2617     0.3375    -3.7941 H       
  33 H33            4.5134    -0.3137    -3.9301 H       
@<TRIPOS>BOND
   1    1    2 1
   2    1    8 1
   3    1    5 1
   4    1   19 1
   5    2    3 1
   6    2   20 1
   7    2   21 1
   8    3    4 1
   9    3   22 1
  10    4    5 1
  11    4   23 1
  12    4   24 1
  13    5    6 1
  14    5   25 1
  15    6    7 1
  16    6   26 1
  17    6   27 1
  18    7    8 1
  19    7    9 am
  20    8   28 1
  21    8   29 1
  22    9   10 2
  23    9   11 1
  24   11   12 2
  25   11   13 1
  26   12   15 1
  27   12   30 1
  28   13   14 1
  29   14   15 2
  30   14   18 1
  31   15   31 1
  32   16   17 2
  33   16   18 1
  34   17   32 1
  35   17   33 1

#	End of record

