#	Name: ASD01140278
#	Creating user name:	WinNT
#	Creation time:	15. 06. 2019 19:00

#	Modifying user name:	WinNT
#	Modification time:	15. 06. 2019 19:00

#	Program:	/corina/corina34_cracker 3.40 0067  02.08.2006

@<TRIPOS>MOLECULE
ASD01140278
  50   52    0    0    0
SMALL
NO_CHARGES


@<TRIPOS>ATOM
   1 C1             3.9418     3.2014     3.9613 C.ar    
   2 C2             3.3878     2.3703     2.9756 C.ar    
   3 C3             4.0987     1.2508     2.5485 C.ar    
   4 C4             5.3489     0.9791     3.1081 C.ar    
   5 C5             5.8803     1.8036     4.0749 C.ar    
   6 C6             5.1752     2.9178     4.5025 C.ar    
   7 C7             2.0669     2.7350     2.4395 C.2     
   8 N8             3.6280     0.3721     1.5845 N.am    
   9 N9             1.7261     2.6514     1.2018 N.2     
  10 C10            2.9871     0.7263     0.4730 C.2     
  11 C11            2.6492     2.1624     0.1784 C.3     
  12 O12            2.6671    -0.1311    -0.3229 O.2     
  13 C13            1.0539     3.2354     3.3963 C.ar    
  14 C14            0.5586     2.3954     4.3972 C.ar    
  15 C15           -0.3869     2.8704     5.2871 C.ar    
  16 C16           -0.8411     4.1726     5.1872 C.ar    
  17 C17           -0.3536     5.0082     4.1978 C.ar    
  18 C18            0.5940     4.5491     3.3064 C.ar    
  19 C19            3.8544    -1.0582     1.8066 C.3     
  20 C20            2.6740    -1.6471     2.5817 C.3     
  21 N21            2.9011    -3.0812     2.8044 N.3     
  22 C22            4.0484    -3.3005     3.6952 C.3     
  23 C23            1.6932    -3.7297     3.3322 C.3     
  24 C24            0.6775    -3.9125     2.2027 C.3     
  25 C25            4.4952    -4.7608     3.6013 C.3     
  26 F26            1.0019     1.1230     4.4947 F       
  27 Cl27           5.8477     3.9555     5.7210 Cl      
  28 H28            3.3980     4.0730     4.2947 H       
  29 H29            5.9047     0.1133     2.7797 H       
  30 H30            6.8478     1.5818     4.5004 H       
  31 H31            2.1779     2.2328    -0.8019 H       
  32 H32            3.5596     2.7615     0.1916 H       
  33 H33           -0.7717     2.2232     6.0614 H       
  34 H34           -1.5800     4.5391     5.8844 H       
  35 H35           -0.7129     6.0241     4.1258 H       
  36 H36            0.9761     5.2046     2.5378 H       
  37 H37            3.9474    -1.5648     0.8460 H       
  38 H38            4.7709    -1.1961     2.3803 H       
  39 H39            2.5811    -1.1404     3.5423 H       
  40 H40            1.7576    -1.5091     2.0080 H       
  41 H41            4.8698    -2.6492     3.3967 H       
  42 H42            3.7598    -3.0741     4.7217 H       
  43 H43            1.9551    -4.7033     3.7465 H       
  44 H44            1.2588    -3.1070     4.1143 H       
  45 H45            0.3780    -2.9361     1.8219 H       
  46 H46            1.1291    -4.4933     1.3984 H       
  47 H47           -0.1982    -4.4384     2.5831 H       
  48 H48            4.6802    -5.0178     2.5583 H       
  49 H49            5.4103    -4.8984     4.1773 H       
  50 H50            3.7135    -5.4064     4.0015 H       
@<TRIPOS>BOND
   1    1    2 ar
   2    1    6 ar
   3    1   28 1
   4    2    3 ar
   5    2    7 1
   6    3    4 ar
   7    3    8 1
   8    4    5 ar
   9    4   29 1
  10    5    6 ar
  11    5   30 1
  12    6   27 1
  13    7    9 2
  14    7   13 1
  15    8   10 am
  16    8   19 1
  17    9   11 1
  18   10   12 2
  19   10   11 1
  20   11   31 1
  21   11   32 1
  22   13   14 ar
  23   13   18 ar
  24   14   15 ar
  25   14   26 1
  26   15   16 ar
  27   15   33 1
  28   16   17 ar
  29   16   34 1
  30   17   18 ar
  31   17   35 1
  32   18   36 1
  33   19   20 1
  34   19   37 1
  35   19   38 1
  36   20   21 1
  37   20   39 1
  38   20   40 1
  39   21   22 1
  40   21   23 1
  41   22   25 1
  42   22   41 1
  43   22   42 1
  44   23   24 1
  45   23   43 1
  46   23   44 1
  47   24   45 1
  48   24   46 1
  49   24   47 1
  50   25   48 1
  51   25   49 1
  52   25   50 1

#	End of record

