#	Name: ASD01890238
#	Creating user name:	WinNT
#	Creation time:	15. 06. 2019 19:50

#	Modifying user name:	WinNT
#	Modification time:	15. 06. 2019 19:50

#	Program:	/corina/corina34_cracker 3.40 0067  02.08.2006

@<TRIPOS>MOLECULE
ASD01890238
  35   36    0    0    0
SMALL
NO_CHARGES


@<TRIPOS>ATOM
   1 C1            -0.0178     1.4581     0.0101 C.2     
   2 C2             0.0021    -0.0041     0.0020 C.2     
   3 C3             1.1795    -0.6627    -0.0128 C.2     
   4 C4             1.1999    -2.1695    -0.0210 C.3     
   5 C5             1.3188    -2.6700    -1.4620 C.3     
   6 O6             1.0271     2.0805     0.0034 O.2     
   7 O7            -1.1951     2.1167     0.0192 O.3     
   8 C8             2.4439     0.0905    -0.0208 C.ar    
   9 C9             2.7967     0.8833     1.0760 C.ar    
  10 C10            3.9833     1.5855     1.0610 C.ar    
  11 C11            4.8240     1.5076    -0.0357 C.ar    
  12 C12            4.4816     0.7256    -1.1251 C.ar    
  13 C13            3.3015     0.0125    -1.1228 C.ar    
  14 C14            1.3392    -4.1769    -1.4703 C.ar    
  15 C15            0.1494    -4.8856    -1.4627 C.ar    
  16 C16            0.1691    -6.2695    -1.4708 C.ar    
  17 C17            1.3772    -6.9432    -1.4864 C.ar    
  18 C18            2.5648    -6.2337    -1.4939 C.ar    
  19 C19            2.5451    -4.8514    -1.4912 C.ar    
  20 F20           -1.0298    -4.2264    -1.4470 F       
  21 Cl21           1.4031    -8.6790    -1.4960 Cl      
  22 H22           -0.9258    -0.5567     0.0079 H       
  23 H23            2.0522    -2.5245     0.5584 H       
  24 H24            0.2777    -2.5478     0.4201 H       
  25 H25            0.4666    -2.3150    -2.0414 H       
  26 H26            2.2410    -2.2917    -1.9031 H       
  27 H27           -1.1071     3.0797     0.0240 H       
  28 H28            2.1414     0.9456     1.9322 H       
  29 H29            4.2572     2.1982     1.9072 H       
  30 H30            5.7518     2.0603    -0.0416 H       
  31 H31            5.1425     0.6705    -1.9775 H       
  32 H32            3.0378    -0.6008    -1.9717 H       
  33 H33           -0.7582    -6.8231    -1.4645 H       
  34 H34            3.5078    -6.7600    -1.5061 H       
  35 H35            3.4727    -4.2984    -1.5012 H       
@<TRIPOS>BOND
   1    1    2 1
   2    1    6 2
   3    1    7 1
   4    2    3 2
   5    2   22 1
   6    3    4 1
   7    3    8 1
   8    4    5 1
   9    4   23 1
  10    4   24 1
  11    5   14 1
  12    5   25 1
  13    5   26 1
  14    7   27 1
  15    8    9 ar
  16    8   13 ar
  17    9   10 ar
  18    9   28 1
  19   10   11 ar
  20   10   29 1
  21   11   12 ar
  22   11   30 1
  23   12   13 ar
  24   12   31 1
  25   13   32 1
  26   14   15 ar
  27   14   19 ar
  28   15   16 ar
  29   15   20 1
  30   16   17 ar
  31   16   33 1
  32   17   18 ar
  33   17   21 1
  34   18   19 ar
  35   18   34 1
  36   19   35 1

#	End of record

