#	Name: ASD05730129
#	Creating user name:	WinNT
#	Creation time:	15. 06. 2019 21:02

#	Modifying user name:	WinNT
#	Modification time:	15. 06. 2019 21:02

#	Program:	/corina/corina34_cracker 3.40 0067  02.08.2006

@<TRIPOS>MOLECULE
ASD05730129
  80   85    0    0    0
SMALL
NO_CHARGES


@<TRIPOS>ATOM
   1 O1            -0.1226     1.5002    -0.0460 O.3     
   2 C2            -0.0760     0.0719    -0.0551 C.3     
   3 C3            -1.2899    -0.4827     0.6931 C.3     
   4 C4            -1.2400    -2.0119     0.6834 C.3     
   5 C5            -1.2588    -2.5136    -0.7619 C.3     
   6 C6            -0.0450    -1.9589    -1.5101 C.3     
   7 C7            -0.0949    -0.4297    -1.5004 C.3     
   8 N8            -1.2110    -3.9777    -0.7712 N.pl3   
   9 C9            -1.7198    -4.6779    -1.8462 C.ar    
  10 N10           -1.6642    -6.0008    -1.8295 N.ar    
  11 C11           -2.1435    -6.7097    -2.8457 C.ar    
  12 C12           -2.7122    -6.0241    -3.9413 C.ar    
  13 C13           -2.7473    -4.6216    -3.9109 C.ar    
  14 N14           -2.2523    -4.0000    -2.8572 N.ar    
  15 N15           -2.0886    -8.0801    -2.8352 N.am    
  16 C16           -2.5739    -8.7982    -3.8659 C.2     
  17 C17           -3.1716    -8.1238    -5.0205 C.2     
  18 C18           -3.2324    -6.7453    -5.0395 C.2     
  19 C19           -1.4943    -8.7714    -1.6884 C.3     
  20 O20           -2.5151   -10.0145    -3.8379 O.2     
  21 C21           -3.7049    -8.9123    -6.1544 C.ar    
  22 C22            1.1628     2.1238    -0.0741 C.3     
  23 C23           -2.5787    -9.0588    -0.6480 C.3     
  24 C24           -5.0680    -8.8676    -6.4480 C.ar    
  25 C25           -5.5510    -9.6094    -7.5108 C.ar    
  26 C26           -4.6557   -10.3733    -8.2475 C.ar    
  27 C27           -3.3175   -10.3716    -7.9016 C.ar    
  28 N28           -2.8814    -9.6520    -6.8873 N.ar    
  29 S29           -5.2204   -11.3366    -9.6105 S.o2    
  30 C30            1.0601     3.4757    -0.7859 C.3     
  31 C31           -6.0010    -8.0234    -5.6186 C.3     
  32 C32           -5.1234   -10.3178   -11.0449 C.2     
  33 C33           -4.0706   -10.2067   -11.8605 C.2     
  34 O34           -4.2671   -12.3748    -9.7905 O.2     
  35 O35           -6.6020   -11.5806    -9.3844 O.2     
  36 N36           -4.2457    -9.3764   -12.8688 N.2     
  37 C37           -5.3876    -8.7810   -12.9491 C.2     
  38 S38           -6.4000    -9.2715   -11.6615 S.3     
  39 C39            2.4259     4.1657    -0.7593 C.3     
  40 N40            2.8523     4.3564     0.6329 N.3     
  41 C41            3.0035     3.0690     1.3230 C.3     
  42 C42            1.6550     2.3463     1.3586 C.3     
  43 C43            4.0936     5.1391     0.7008 C.3     
  44 H44            0.8377    -0.2649     0.4346 H       
  45 H45           -1.2765    -0.1253     1.7228 H       
  46 H46           -2.2036    -0.1459     0.2035 H       
  47 H47           -0.3262    -2.3487     1.1730 H       
  48 H48           -2.1047    -2.4070     1.2165 H       
  49 H49           -2.1725    -2.1767    -1.2515 H       
  50 H50            0.8688    -2.2957    -1.0205 H       
  51 H51           -0.0584    -2.3163    -2.5398 H       
  52 H52           -1.0086    -0.0929    -1.9900 H       
  53 H53            0.7699    -0.0346    -2.0334 H       
  54 H54           -0.8217    -4.4551    -0.0219 H       
  55 H55           -3.1741    -4.0629    -4.7307 H       
  56 H56           -3.6689    -6.2263    -5.8800 H       
  57 H57           -1.0509    -9.7103    -2.0200 H       
  58 H58           -0.7228    -8.1420    -1.2447 H       
  59 H59            1.8664     1.4842    -0.6069 H       
  60 H60           -2.1365    -9.5731     0.2052 H       
  61 H61           -3.0220    -8.1198    -0.3164 H       
  62 H62           -3.3502    -9.6881    -1.0917 H       
  63 H63           -6.6013    -9.5950    -7.7618 H       
  64 H64           -2.6191   -10.9652    -8.4728 H       
  65 H65            0.7510     3.3202    -1.8195 H       
  66 H66            0.3267     4.1005    -0.2762 H       
  67 H67           -5.9887    -6.9980    -5.9882 H       
  68 H68           -7.0126    -8.4231    -5.6896 H       
  69 H69           -5.6766    -8.0385    -4.5781 H       
  70 H70           -3.1516   -10.7525   -11.7060 H       
  71 H71           -5.6654    -8.0782   -13.7206 H       
  72 H72            3.1557     3.5467    -1.2811 H       
  73 H73            2.3528     5.1348    -1.2527 H       
  74 H74            3.7307     2.4552     0.7915 H       
  75 H75            3.3500     3.2417     2.3420 H       
  76 H76            0.9310     2.9534     1.9020 H       
  77 H77            1.7710     1.3839     1.8571 H       
  78 H78            3.9316     6.1171     0.2477 H       
  79 H79            4.3869     5.2654     1.7429 H       
  80 H80            4.8832     4.6154     0.1620 H       
@<TRIPOS>BOND
   1    1    2 1
   2    1   22 1
   3    2    3 1
   4    2    7 1
   5    2   44 1
   6    3    4 1
   7    3   45 1
   8    3   46 1
   9    4    5 1
  10    4   47 1
  11    4   48 1
  12    5    6 1
  13    5    8 1
  14    5   49 1
  15    6    7 1
  16    6   50 1
  17    6   51 1
  18    7   52 1
  19    7   53 1
  20    8    9 1
  21    8   54 1
  22    9   10 ar
  23    9   14 ar
  24   10   11 ar
  25   11   12 ar
  26   11   15 1
  27   12   13 ar
  28   12   18 1
  29   13   14 ar
  30   13   55 1
  31   15   16 am
  32   15   19 1
  33   16   17 1
  34   16   20 2
  35   17   18 2
  36   17   21 1
  37   18   56 1
  38   19   23 1
  39   19   57 1
  40   19   58 1
  41   21   24 ar
  42   21   28 ar
  43   22   30 1
  44   22   42 1
  45   22   59 1
  46   23   60 1
  47   23   61 1
  48   23   62 1
  49   24   25 ar
  50   24   31 1
  51   25   26 ar
  52   25   63 1
  53   26   27 ar
  54   26   29 1
  55   27   28 ar
  56   27   64 1
  57   29   32 1
  58   29   34 2
  59   29   35 2
  60   30   39 1
  61   30   65 1
  62   30   66 1
  63   31   67 1
  64   31   68 1
  65   31   69 1
  66   32   33 2
  67   32   38 1
  68   33   36 1
  69   33   70 1
  70   36   37 2
  71   37   38 1
  72   37   71 1
  73   39   40 1
  74   39   72 1
  75   39   73 1
  76   40   41 1
  77   40   43 1
  78   41   42 1
  79   41   74 1
  80   41   75 1
  81   42   76 1
  82   42   77 1
  83   43   78 1
  84   43   79 1
  85   43   80 1

#	End of record

