#	Name: ASD02039066
#	Creating user name:	WinNT
#	Creation time:	15. 06. 2019 20:17

#	Modifying user name:	WinNT
#	Modification time:	15. 06. 2019 20:17

#	Program:	/corina/corina34_cracker 3.40 0067  02.08.2006

@<TRIPOS>MOLECULE
ASD02039066
  43   46    0    0    0
SMALL
NO_CHARGES


@<TRIPOS>ATOM
   1 N1             0.0234     1.2846    -0.3606 N.2     
   2 N2             0.0398    -0.0019    -0.3618 N.2     
   3 C3             1.2244     1.7332    -0.0875 C.2     
   4 O4             2.0204     0.6620     0.0884 O.3     
   5 C5             1.2410    -0.4221    -0.0919 C.2     
   6 N6             1.6034     3.0605     0.0028 N.pl3   
   7 C7             0.6393     4.0715    -0.0882 C.ar    
   8 C8             1.6807    -1.8604     0.0029 C.3     
   9 O9             2.1174    -2.3106    -1.2811 O.3     
  10 C10            2.5500    -3.5964    -1.3701 C.ar    
  11 C11            2.9852    -4.0924    -2.5829 C.ar    
  12 C12            2.5575    -4.4050    -0.2363 C.ar    
  13 C13            2.9933    -5.7099    -0.3075 C.ar    
  14 C14            3.4308    -6.2310    -1.5204 C.ar    
  15 C15            3.4295    -5.4157    -2.6680 C.ar    
  16 C16           -0.6626     3.8294     0.3297 C.ar    
  17 C17            0.9859     5.3188    -0.5912 C.ar    
  18 C18            0.0346     6.3159    -0.6809 C.ar    
  19 C19           -1.2671     6.0724    -0.2689 C.ar    
  20 C20           -1.6136     4.8281     0.2394 C.ar    
  21 N21            3.8708    -7.5360    -1.6125 N.am    
  22 C22            4.2938    -8.0422    -2.7839 C.2     
  23 C23            4.3076    -7.2679    -3.9637 C.2     
  24 C24            3.8923    -5.9773    -3.9385 C.2     
  25 O25            4.6754    -9.1990    -2.8280 O.2     
  26 O26           -2.2033     7.0551    -0.3576 O.3     
  27 Cl27          -3.2433     4.5240     0.7543 Cl      
  28 C28           -1.7757     8.3127    -0.8846 C.3     
  29 F29           -0.7583     8.8345    -0.0785 F       
  30 F30           -1.2942     8.1337    -2.1858 F       
  31 H31            2.5372     3.2907     0.1291 H       
  32 H32            2.5014    -1.9432     0.7154 H       
  33 H33            0.8450    -2.4745     0.3383 H       
  34 H34            2.9822    -3.4626    -3.4603 H       
  35 H35            2.2187    -4.0051     0.7080 H       
  36 H36            2.9955    -6.3278     0.5782 H       
  37 H37           -0.9320     2.8610     0.7247 H       
  38 H38            1.9995     5.5091    -0.9119 H       
  39 H39            0.3045     7.2859    -1.0717 H       
  40 H40            3.8751    -8.0959    -0.8204 H       
  41 H41            4.6538    -7.7037    -4.8892 H       
  42 H42            3.8993    -5.3778    -4.8368 H       
  43 H43           -2.6175     9.0050    -0.9007 H       
@<TRIPOS>BOND
   1    1    2 1
   2    1    3 2
   3    2    5 2
   4    3    4 1
   5    3    6 1
   6    4    5 1
   7    5    8 1
   8    6    7 1
   9    6   31 1
  10    7   16 ar
  11    7   17 ar
  12    8    9 1
  13    8   32 1
  14    8   33 1
  15    9   10 1
  16   10   11 ar
  17   10   12 ar
  18   11   15 ar
  19   11   34 1
  20   12   13 ar
  21   12   35 1
  22   13   14 ar
  23   13   36 1
  24   14   15 ar
  25   14   21 1
  26   15   24 1
  27   16   20 ar
  28   16   37 1
  29   17   18 ar
  30   17   38 1
  31   18   19 ar
  32   18   39 1
  33   19   20 ar
  34   19   26 1
  35   20   27 1
  36   21   22 am
  37   21   40 1
  38   22   23 1
  39   22   25 2
  40   23   24 2
  41   23   41 1
  42   24   42 1
  43   26   28 1
  44   28   29 1
  45   28   30 1
  46   28   43 1

#	End of record

