#	Name: ASD03731678
#	Creating user name:	WinNT
#	Creation time:	15. 06. 2019 20:46

#	Modifying user name:	WinNT
#	Modification time:	15. 06. 2019 20:46

#	Program:	/corina/corina34_cracker 3.40 0067  02.08.2006

@<TRIPOS>MOLECULE
ASD03731678
  40   41    0    0    0
SMALL
NO_CHARGES


@<TRIPOS>ATOM
   1 C1            -0.4036     1.1033    -1.9623 C.2     
   2 C2            -0.2822    -0.2745    -1.4515 C.ar    
   3 C3             0.9015    -0.9951    -1.6497 C.ar    
   4 C4             1.0105    -2.2845    -1.1692 C.ar    
   5 C5            -0.0519    -2.8666    -0.4907 C.ar    
   6 C6            -1.2312    -2.1533    -0.2918 C.ar    
   7 C7            -1.3469    -0.8634    -0.7625 C.ar    
   8 O8             0.5254     1.6154    -2.5569 O.2     
   9 N9            -1.5461     1.7932    -1.7751 N.am    
  10 S10           -1.6825     3.3406    -2.3488 S.o2    
  11 O11           -2.9846     3.7481    -1.9517 O.2     
  12 O12           -0.5255     4.0009    -1.8543 O.2     
  13 C13           -1.5929     3.1644    -4.1520 C.3     
  14 O14            0.0593    -4.1350    -0.0202 O.3     
  15 C15            1.2617    -4.7566    -0.1396 C.ar    
  16 C16            2.2122    -4.6274     0.8620 C.ar    
  17 C17            3.4376    -5.2632     0.7373 C.ar    
  18 C18            3.7105    -6.0272    -0.3888 C.ar    
  19 C19            2.7619    -6.1544    -1.3853 C.ar    
  20 C20            1.5375    -5.5259    -1.2612 C.ar    
  21 C21            3.0609    -6.9846    -2.6069 C.3     
  22 O22            4.3713    -5.1381     1.7169 O.3     
  23 C23            4.0225    -4.3362     2.8471 C.3     
  24 F24           -2.2619    -2.7252     0.3683 F       
  25 F25            1.9353    -0.4296    -2.3106 F       
  26 H26            1.9231    -2.8415    -1.3215 H       
  27 H27           -2.2604    -0.3097    -0.6037 H       
  28 H28           -2.2886     1.3833    -1.3044 H       
  29 H29           -2.4094     2.5294    -4.4960 H       
  30 H30           -1.6754     4.1465    -4.6176 H       
  31 H31           -0.6401     2.7113    -4.4259 H       
  32 H32            1.9982    -4.0322     1.7373 H       
  33 H33            4.6653    -6.5224    -0.4865 H       
  34 H34            0.7961    -5.6302    -2.0395 H       
  35 H35            2.7503    -8.0145    -2.4312 H       
  36 H36            2.5175    -6.5820    -3.4617 H       
  37 H37            4.1313    -6.9577    -2.8114 H       
  38 H38            4.8540    -4.3201     3.5516 H       
  39 H39            3.8050    -3.3200     2.5183 H       
  40 H40            3.1424    -4.7570     3.3334 H       
@<TRIPOS>BOND
   1    1    2 1
   2    1    8 2
   3    1    9 am
   4    2    3 ar
   5    2    7 ar
   6    3    4 ar
   7    3   25 1
   8    4    5 ar
   9    4   26 1
  10    5    6 ar
  11    5   14 1
  12    6    7 ar
  13    6   24 1
  14    7   27 1
  15    9   10 am
  16    9   28 1
  17   10   11 2
  18   10   12 2
  19   10   13 1
  20   13   29 1
  21   13   30 1
  22   13   31 1
  23   14   15 1
  24   15   16 ar
  25   15   20 ar
  26   16   17 ar
  27   16   32 1
  28   17   18 ar
  29   17   22 1
  30   18   19 ar
  31   18   33 1
  32   19   20 ar
  33   19   21 1
  34   20   34 1
  35   21   35 1
  36   21   36 1
  37   21   37 1
  38   22   23 1
  39   23   38 1
  40   23   39 1
  41   23   40 1

#	End of record

