#	Name: ASD02500033
#	Creating user name:	WinNT
#	Creation time:	15. 06. 2019 20:22

#	Modifying user name:	WinNT
#	Modification time:	15. 06. 2019 20:22

#	Program:	/corina/corina34_cracker 3.40 0067  02.08.2006

@<TRIPOS>MOLECULE
ASD02500033
  58   62    0    0    0
SMALL
NO_CHARGES


@<TRIPOS>ATOM
   1 C1            -0.9637     2.6941    -1.3827 C.ar    
   2 C2            -1.3336     1.4814    -1.9347 C.ar    
   3 C3            -0.3823     0.5049    -2.1668 C.ar    
   4 C4             0.9410     0.7381    -1.8478 C.ar    
   5 C5             1.3160     1.9552    -1.2932 C.ar    
   6 C6             0.3578     2.9339    -1.0613 C.ar    
   7 N7             2.6534     2.1943    -0.9690 N.3     
   8 C8             2.8249     3.5370    -0.3984 C.3     
   9 C9             4.2624     3.6931     0.1088 C.3     
  10 N10            5.1837     3.3615    -0.9888 N.am    
  11 C11            4.9879     2.0899    -1.7014 C.3     
  12 C12            3.5217     1.9969    -2.1373 C.3     
  13 C13            6.1805     4.2008    -1.3327 C.2     
  14 O14            6.2623     5.2949    -0.8083 O.2     
  15 C15            7.1725     3.7922    -2.3452 C.ar    
  16 C16            7.6626     4.7264    -3.2625 C.ar    
  17 C17            8.5878     4.3421    -4.2059 C.ar    
  18 C18            9.0358     3.0246    -4.2474 C.ar    
  19 C19            8.5496     2.0920    -3.3353 C.ar    
  20 C20            7.6286     2.4714    -2.3858 C.ar    
  21 N21            9.9704     2.6394    -5.2021 N.am    
  22 S22           11.2818     1.7310    -4.7577 S.o2    
  23 O23           12.0932     1.6037    -5.9173 O.2     
  24 C24           12.2100     2.6851    -3.6032 C.ar    
  25 C25           12.8167     3.8869    -4.0074 C.ar    
  26 C26           13.5581     4.6367    -3.0608 C.ar    
  27 C27           13.6733     4.1691    -1.7420 C.ar    
  28 C28           13.0712     3.0003    -1.3875 C.ar    
  29 C29           12.3377     2.2639    -2.3153 C.ar    
  30 O30           10.7725     0.6159    -4.0391 O.2     
  31 N31           12.7041     4.3279    -5.2644 N.ar    
  32 C32           13.2681     5.4478    -5.6467 C.ar    
  33 C33           14.0106     6.2325    -4.7666 C.ar    
  34 C34           14.1649     5.8401    -3.4676 C.ar    
  35 H35           -1.7084     3.4563    -1.2069 H       
  36 H36           -2.3678     1.2963    -2.1847 H       
  37 H37           -0.6746    -0.4413    -2.5977 H       
  38 H38            1.6834    -0.0250    -2.0290 H       
  39 H39            0.6461     3.8814    -0.6306 H       
  40 H40            2.6262     4.2861    -1.1649 H       
  41 H41            2.1301     3.6714     0.4307 H       
  42 H42            4.4284     4.7221     0.4279 H       
  43 H43            4.4311     3.0155     0.9457 H       
  44 H44            5.6335     2.0588    -2.5791 H       
  45 H45            5.2262     1.2581    -1.0384 H       
  46 H46            3.3323     1.0143    -2.5693 H       
  47 H47            3.3134     2.7674    -2.8796 H       
  48 H48            7.3152     5.7485    -3.2310 H       
  49 H49            8.9666     5.0633    -4.9150 H       
  50 H50            8.8988     1.0706    -3.3702 H       
  51 H51            7.2521     1.7475    -1.6783 H       
  52 H52            9.8542     2.9027    -6.1284 H       
  53 H53           14.2364     4.7329    -1.0131 H       
  54 H54           13.1603     2.6414    -0.3728 H       
  55 H55           11.8692     1.3401    -2.0095 H       
  56 H56           13.1546     5.7706    -6.6710 H       
  57 H57           14.4637     7.1502    -5.1115 H       
  58 H58           14.7367     6.4362    -2.7719 H       
@<TRIPOS>BOND
   1    1    2 ar
   2    1    6 ar
   3    1   35 1
   4    2    3 ar
   5    2   36 1
   6    3    4 ar
   7    3   37 1
   8    4    5 ar
   9    4   38 1
  10    5    6 ar
  11    5    7 1
  12    6   39 1
  13    7    8 1
  14    7   12 1
  15    8    9 1
  16    8   40 1
  17    8   41 1
  18    9   10 1
  19    9   42 1
  20    9   43 1
  21   10   11 1
  22   10   13 am
  23   11   12 1
  24   11   44 1
  25   11   45 1
  26   12   46 1
  27   12   47 1
  28   13   14 2
  29   13   15 1
  30   15   16 ar
  31   15   20 ar
  32   16   17 ar
  33   16   48 1
  34   17   18 ar
  35   17   49 1
  36   18   19 ar
  37   18   21 1
  38   19   20 ar
  39   19   50 1
  40   20   51 1
  41   21   22 am
  42   21   52 1
  43   22   23 2
  44   22   24 1
  45   22   30 2
  46   24   25 ar
  47   24   29 ar
  48   25   26 ar
  49   25   31 ar
  50   26   27 ar
  51   26   34 ar
  52   27   28 ar
  53   27   53 1
  54   28   29 ar
  55   28   54 1
  56   29   55 1
  57   31   32 ar
  58   32   33 ar
  59   32   56 1
  60   33   34 ar
  61   33   57 1
  62   34   58 1

#	End of record

