#	Name: ASD04882129
#	Creating user name:	WinNT
#	Creation time:	15. 06. 2019 20:54

#	Modifying user name:	WinNT
#	Modification time:	15. 06. 2019 20:54

#	Program:	/corina/corina34_cracker 3.40 0067  02.08.2006

@<TRIPOS>MOLECULE
ASD04882129
  71   75    0    0    0
SMALL
NO_CHARGES


@<TRIPOS>ATOM
   1 C1             0.4108     0.9704     0.4872 C.2     
   2 C2             0.2558    -0.3667     0.7176 C.2     
   3 C3            -0.9454    -1.1569     0.4299 C.2     
   4 O4            -1.9231    -0.6220    -0.0594 O.2     
   5 N5            -0.9669    -2.4757     0.7074 N.am    
   6 C6            -2.1483    -3.2085     0.5351 C.ar    
   7 C7            -2.0893    -4.5478     0.1384 C.ar    
   8 C8            -3.2605    -5.2761    -0.0329 C.ar    
   9 C9            -4.4835    -4.6814     0.1874 C.ar    
  10 C10           -4.5497    -3.3431     0.5837 C.ar    
  11 C11           -3.3727    -2.6100     0.7627 C.ar    
  12 N12           -0.8553    -5.1528    -0.0859 N.3     
  13 C13           -0.1820    -4.5601    -1.2500 C.3     
  14 C14            1.2006    -5.1955    -1.4144 C.3     
  15 N15            1.0528    -6.6484    -1.5784 N.3     
  16 C16            0.3795    -7.2411    -0.4143 C.3     
  17 C17           -1.0031    -6.6057    -0.2499 C.3     
  18 C18            2.2906    -7.2553    -1.8034 C.ar    
  19 C19            2.9877    -7.0005    -2.9778 C.ar    
  20 C20            4.7429    -8.4570    -2.2488 C.ar    
  21 C21            2.8299    -8.1103    -0.8509 C.ar    
  22 C22            4.2113    -7.6017    -3.1968 C.ar    
  23 C23            4.0544    -8.7084    -1.0764 C.ar    
  24 C24            2.4089    -6.0694    -4.0118 C.3     
  25 C25           -5.8595    -2.7062     0.8186 C.2     
  26 N26           -6.9934    -3.4153     0.6511 N.am    
  27 O27           -5.9162    -1.5415     1.1634 O.2     
  28 C28           -8.2941    -2.7829     0.8844 C.3     
  29 O29            1.4016    -0.8332     1.2558 O.3     
  30 C30            2.2791     0.1719     1.3730 C.2     
  31 C31            1.7071     1.3049     0.9093 C.2     
  32 C32           -9.3920    -3.7834     0.6298 C.ar    
  33 C33          -10.0785    -3.7661    -0.5686 C.ar    
  34 C34          -11.0861    -4.6839    -0.8028 C.ar    
  35 C35          -11.4088    -5.6207     0.1613 C.ar    
  36 C36          -10.7253    -5.6418     1.3619 C.ar    
  37 C37           -9.7101    -4.7262     1.5968 C.ar    
  38 O38           -9.0363    -4.7449     2.7768 O.3     
  39 C39           -9.4260    -5.7349     3.7308 C.3     
  40 H40           -0.3205     1.6398     0.0588 H       
  41 H41           -0.1643    -2.9173     1.0263 H       
  42 H42           -3.2119    -6.3104    -0.3398 H       
  43 H43           -5.3919    -5.2500     0.0535 H       
  44 H44           -3.4206    -1.5768     1.0736 H       
  45 H45           -0.7754    -4.7436    -2.1457 H       
  46 H46           -0.0730    -3.4861    -1.0992 H       
  47 H47            1.6903    -4.7782    -2.2943 H       
  48 H48            1.8034    -4.9888    -0.5301 H       
  49 H49            0.2706    -8.3151    -0.5651 H       
  50 H50            0.9729    -7.0576     0.4814 H       
  51 H51           -1.4928    -7.0230     0.6300 H       
  52 H52           -1.6058    -6.8124    -1.1342 H       
  53 H53            5.6999    -8.9262    -2.4228 H       
  54 H54            2.2926    -8.3070     0.0650 H       
  55 H55            4.7537    -7.4040    -4.1096 H       
  56 H56            4.4722    -9.3768    -0.3382 H       
  57 H57            2.7991    -5.0639    -3.8543 H       
  58 H58            2.6861    -6.4149    -5.0077 H       
  59 H59            1.3227    -6.0559    -3.9211 H       
  60 H60           -6.9482    -4.3444     0.3760 H       
  61 H61           -8.3500    -2.4369     1.9165 H       
  62 H62           -8.4119    -1.9347     0.2100 H       
  63 H63            3.2791     0.0903     1.7728 H       
  64 H64            2.1618     2.2837     0.8705 H       
  65 H65           -9.8285    -3.0351    -1.3232 H       
  66 H66          -11.6220    -4.6686    -1.7403 H       
  67 H67          -12.1961    -6.3364    -0.0240 H       
  68 H68          -10.9781    -6.3735     2.1149 H       
  69 H69          -10.4742    -5.5929     3.9942 H       
  70 H70           -9.2907    -6.7272     3.3005 H       
  71 H71           -8.8105    -5.6397     4.6253 H       
@<TRIPOS>BOND
   1    1    2 2
   2    1   31 1
   3    1   40 1
   4    2    3 1
   5    2   29 1
   6    3    4 2
   7    3    5 am
   8    5    6 1
   9    5   41 1
  10    6    7 ar
  11    6   11 ar
  12    7    8 ar
  13    7   12 1
  14    8    9 ar
  15    8   42 1
  16    9   10 ar
  17    9   43 1
  18   10   11 ar
  19   10   25 1
  20   11   44 1
  21   12   13 1
  22   12   17 1
  23   13   14 1
  24   13   45 1
  25   13   46 1
  26   14   15 1
  27   14   47 1
  28   14   48 1
  29   15   16 1
  30   15   18 1
  31   16   17 1
  32   16   49 1
  33   16   50 1
  34   17   51 1
  35   17   52 1
  36   18   19 ar
  37   18   21 ar
  38   19   22 ar
  39   19   24 1
  40   20   22 ar
  41   20   23 ar
  42   20   53 1
  43   21   23 ar
  44   21   54 1
  45   22   55 1
  46   23   56 1
  47   24   57 1
  48   24   58 1
  49   24   59 1
  50   25   26 am
  51   25   27 2
  52   26   28 1
  53   26   60 1
  54   28   32 1
  55   28   61 1
  56   28   62 1
  57   29   30 1
  58   30   31 2
  59   30   63 1
  60   31   64 1
  61   32   33 ar
  62   32   37 ar
  63   33   34 ar
  64   33   65 1
  65   34   35 ar
  66   34   66 1
  67   35   36 ar
  68   35   67 1
  69   36   37 ar
  70   36   68 1
  71   37   38 1
  72   38   39 1
  73   39   69 1
  74   39   70 1
  75   39   71 1

#	End of record

