#	Name: ASD02560089
#	Creating user name:	WinNT
#	Creation time:	15. 06. 2019 20:24

#	Modifying user name:	WinNT
#	Modification time:	15. 06. 2019 20:24

#	Program:	/corina/corina34_cracker 3.40 0067  02.08.2006

@<TRIPOS>MOLECULE
ASD02560089
  46   48    0    0    0
SMALL
NO_CHARGES


@<TRIPOS>ATOM
   1 C1             2.3006    -0.3535    -0.2249 C.3     
   2 C2             0.8731    -0.1567    -0.7343 C.3     
   3 C3             0.4154     1.2569    -0.4891 C.ar    
   4 C4             1.0242     2.0604     0.4609 C.ar    
   5 N5             2.0981     1.5809     1.2263 N.am    
   6 C6             2.3819     0.1392     1.2259 C.3     
   7 C7            -0.6395     1.7583    -1.2342 C.ar    
   8 C8            -1.0852     3.0507    -1.0311 C.ar    
   9 C9            -0.4787     3.8534    -0.0806 C.ar    
  10 C10            0.5744     3.3609     0.6652 C.ar    
  11 C11            2.8566     2.4285     1.9493 C.2     
  12 O12            3.3510     2.0407     3.1402 O.3     
  13 O13            3.0944     3.5425     1.5264 O.2     
  14 C14            4.2503     2.9617     3.8121 C.3     
  15 C15            4.6018     2.4178     5.1729 C.2     
  16 N16            5.3470     3.1539     6.0209 N.am    
  17 O17            4.2140     1.3175     5.5048 O.2     
  18 C18            5.7709     2.6053     7.2369 C.ar    
  19 C19            5.8959     1.2296     7.3734 C.ar    
  20 C20            6.3150     0.6910     8.5747 C.ar    
  21 C21            6.6096     1.5203     9.6409 C.ar    
  22 C22            6.4864     2.8915     9.5091 C.ar    
  23 C23            6.0733     3.4371     8.3087 C.ar    
  24 Cl24           5.9192     5.1584     8.1434 Cl      
  25 Cl25           1.3369     4.3652     1.8584 Cl      
  26 Cl26          -2.4079     3.6686    -1.9703 Cl      
  27 S27            7.1426     0.8287    11.1714 S.o2    
  28 O28            6.8362     1.7883    12.1737 O.2     
  29 O29            6.6569    -0.5064    11.1992 O.2     
  30 N30            8.7943     0.7243    11.1133 N.am    
  31 H31            2.5606    -1.4112    -0.2664 H       
  32 H32            2.9915     0.2187    -0.8441 H       
  33 H33            0.8409    -0.3648    -1.8038 H       
  34 H34            0.2074    -0.8456    -0.2142 H       
  35 H35            1.6438    -0.3826     1.8350 H       
  36 H36            3.3816    -0.0404     1.6214 H       
  37 H37           -1.1162     1.1361    -1.9772 H       
  38 H38           -0.8280     4.8631     0.0774 H       
  39 H39            5.1590     3.0780     3.2215 H       
  40 H40            3.7624     3.9301     3.9228 H       
  41 H41            5.5895     4.0639     5.7886 H       
  42 H42            5.6653     0.5808     6.5414 H       
  43 H43            6.4122    -0.3793     8.6811 H       
  44 H44            6.7174     3.5367    10.3439 H       
  45 H45            9.3137     0.7946    11.9294 H       
  46 H46            9.2424     0.5928    10.2630 H       
@<TRIPOS>BOND
   1    1    2 1
   2    1    6 1
   3    1   31 1
   4    1   32 1
   5    2    3 1
   6    2   33 1
   7    2   34 1
   8    3    4 ar
   9    3    7 ar
  10    4    5 1
  11    4   10 ar
  12    5    6 1
  13    5   11 am
  14    6   35 1
  15    6   36 1
  16    7    8 ar
  17    7   37 1
  18    8    9 ar
  19    8   26 1
  20    9   10 ar
  21    9   38 1
  22   10   25 1
  23   11   12 1
  24   11   13 2
  25   12   14 1
  26   14   15 1
  27   14   39 1
  28   14   40 1
  29   15   16 am
  30   15   17 2
  31   16   18 1
  32   16   41 1
  33   18   19 ar
  34   18   23 ar
  35   19   20 ar
  36   19   42 1
  37   20   21 ar
  38   20   43 1
  39   21   22 ar
  40   21   27 1
  41   22   23 ar
  42   22   44 1
  43   23   24 1
  44   27   28 2
  45   27   29 2
  46   27   30 am
  47   30   45 1
  48   30   46 1

#	End of record

