#	Name: ASD02500257
#	Creating user name:	WinNT
#	Creation time:	15. 06. 2019 20:22

#	Modifying user name:	WinNT
#	Modification time:	15. 06. 2019 20:22

#	Program:	/corina/corina34_cracker 3.40 0067  02.08.2006

@<TRIPOS>MOLECULE
ASD02500257
  67   71    0    0    0
SMALL
NO_CHARGES


@<TRIPOS>ATOM
   1 N1            -3.0544     5.3121     0.7583 N.ar    
   2 C2            -4.2228     5.8799     0.9328 C.ar    
   3 C3            -5.0569     5.5305     1.9929 C.ar    
   4 C4            -4.6628     4.5727     2.8831 C.ar    
   5 C5            -3.4075     3.9647     2.6923 C.ar    
   6 C6            -2.9350     2.9730     3.5665 C.ar    
   7 C7            -1.7148     2.4092     3.3480 C.ar    
   8 C8            -0.9281     2.8039     2.2681 C.ar    
   9 C9            -1.3551     3.7623     1.4012 C.ar    
  10 C10           -2.6090     4.3678     1.5932 C.ar    
  11 S11           -0.3395     4.2429     0.0439 S.o2    
  12 O12           -0.3082     5.6635     0.0495 O.2     
  13 O13            0.8305     3.4394     0.1139 O.2     
  14 N14           -1.1301     3.7980    -1.3416 N.am    
  15 C15           -1.3628     2.4531    -1.6080 C.ar    
  16 C16           -2.6222     2.0374    -2.0233 C.ar    
  17 C17           -2.8537     0.6996    -2.2889 C.ar    
  18 C18           -1.8120    -0.2295    -2.1361 C.ar    
  19 C19           -0.5503     0.2048    -1.7173 C.ar    
  20 C20           -0.3310     1.5280    -1.4631 C.ar    
  21 C21           -2.0473    -1.6557    -2.4154 C.2     
  22 O22           -2.9515    -2.2443    -1.8538 O.2     
  23 N23           -1.2608    -2.3091    -3.2934 N.am    
  24 C24           -1.5410    -3.7064    -3.6528 C.3     
  25 C25           -1.6741    -3.8030    -5.1776 C.3     
  26 N26           -0.5212    -3.1309    -5.7932 N.am    
  27 C27           -0.2410    -1.7337    -5.4339 C.3     
  28 C28           -0.1112    -1.6353    -3.9133 C.3     
  29 C29            0.2653    -3.7843    -6.6712 C.2     
  30 O30            0.0244    -4.9374    -6.9597 O.2     
  31 C31            1.4441    -3.0822    -7.2944 C.3     
  32 C32            2.1528    -4.0257    -8.2317 C.ar    
  33 C33            1.7811    -4.0877    -9.5617 C.ar    
  34 C34            2.4311    -4.9533   -10.4214 C.ar    
  35 C35            3.4532    -5.7565    -9.9513 C.ar    
  36 C36            3.8255    -5.6939    -8.6215 C.ar    
  37 C37            3.1784    -4.8252    -7.7627 C.ar    
  38 O38           -4.0810     0.2873    -2.6942 O.3     
  39 C39           -5.0910     1.2895    -2.8266 C.3     
  40 H40           -4.5476     6.6390     0.2366 H       
  41 H41           -6.0139     6.0169     2.1106 H       
  42 H42           -5.2965     4.2898     3.7107 H       
  43 H43           -3.5355     2.6593     4.4075 H       
  44 H44           -1.3521     1.6464     4.0210 H       
  45 H45            0.0364     2.3421     2.1167 H       
  46 H46           -1.4307     4.4755    -1.9672 H       
  47 H47           -3.4188     2.7575    -2.1383 H       
  48 H48            0.2531    -0.5073    -1.5989 H       
  49 H49            0.6463     1.8589    -1.1442 H       
  50 H50           -0.7220    -4.3420    -3.3160 H       
  51 H51           -2.4716    -4.0252    -3.1834 H       
  52 H52           -1.6899    -4.8507    -5.4778 H       
  53 H53           -2.5951    -3.3147    -5.4961 H       
  54 H54            0.6896    -1.4148    -5.9033 H       
  55 H55           -1.0600    -1.0981    -5.7706 H       
  56 H56           -0.0978    -0.5867    -3.6159 H       
  57 H57            0.8119    -2.1201    -3.5955 H       
  58 H58            1.0962    -2.2113    -7.8500 H       
  59 H59            2.1321    -2.7627    -6.5117 H       
  60 H60            0.9826    -3.4601    -9.9290 H       
  61 H61            2.1402    -5.0022   -11.4604 H       
  62 H62            3.9606    -6.4333   -10.6228 H       
  63 H63            4.6238    -6.3217    -8.2541 H       
  64 H64            3.4717    -4.7736    -6.7246 H       
  65 H65           -6.0211     0.8266    -3.1564 H       
  66 H66           -5.2486     1.7759    -1.8640 H       
  67 H67           -4.7737     2.0304    -3.5605 H       
@<TRIPOS>BOND
   1    1    2 ar
   2    1   10 ar
   3    2    3 ar
   4    2   40 1
   5    3    4 ar
   6    3   41 1
   7    4    5 ar
   8    4   42 1
   9    5    6 ar
  10    5   10 ar
  11    6    7 ar
  12    6   43 1
  13    7    8 ar
  14    7   44 1
  15    8    9 ar
  16    8   45 1
  17    9   10 ar
  18    9   11 1
  19   11   12 2
  20   11   13 2
  21   11   14 am
  22   14   15 1
  23   14   46 1
  24   15   16 ar
  25   15   20 ar
  26   16   17 ar
  27   16   47 1
  28   17   18 ar
  29   17   38 1
  30   18   19 ar
  31   18   21 1
  32   19   20 ar
  33   19   48 1
  34   20   49 1
  35   21   22 2
  36   21   23 am
  37   23   24 1
  38   23   28 1
  39   24   25 1
  40   24   50 1
  41   24   51 1
  42   25   26 1
  43   25   52 1
  44   25   53 1
  45   26   27 1
  46   26   29 am
  47   27   28 1
  48   27   54 1
  49   27   55 1
  50   28   56 1
  51   28   57 1
  52   29   30 2
  53   29   31 1
  54   31   32 1
  55   31   58 1
  56   31   59 1
  57   32   33 ar
  58   32   37 ar
  59   33   34 ar
  60   33   60 1
  61   34   35 ar
  62   34   61 1
  63   35   36 ar
  64   35   62 1
  65   36   37 ar
  66   36   63 1
  67   37   64 1
  68   38   39 1
  69   39   65 1
  70   39   66 1
  71   39   67 1

#	End of record

