#	Name: ASD01148762
#	Creating user name:	WinNT
#	Creation time:	15. 06. 2019 19:03

#	Modifying user name:	WinNT
#	Modification time:	15. 06. 2019 19:03

#	Program:	/corina/corina34_cracker 3.40 0067  02.08.2006

@<TRIPOS>MOLECULE
ASD01148762
  48   50    0    0    0
SMALL
NO_CHARGES


@<TRIPOS>ATOM
   1 N1            -0.0155     1.3411     0.0827 N.pl3   
   2 C2             0.0021     0.0054    -0.1104 C.2     
   3 C3             1.3176    -0.4068    -0.1563 C.2     
   4 C4             2.1210     0.7506     0.0196 C.2     
   5 C5             1.2771     1.8041     0.1631 C.2     
   6 C6             1.7972    -1.7843    -0.3498 C.2     
   7 O7             1.0002    -2.6915    -0.4887 O.2     
   8 O8             3.1204    -2.0402    -0.3731 O.3     
   9 C9            -1.1681     2.1318     0.1797 C.ar    
  10 C10           -2.0096     2.0034     1.2769 C.ar    
  11 C11           -3.1447     2.7845     1.3699 C.ar    
  12 C12           -3.4437     3.6939     0.3718 C.ar    
  13 C13           -2.6081     3.8237    -0.7221 C.ar    
  14 C14           -1.4682     3.0493    -0.8180 C.ar    
  15 S15           -4.2133     2.6219     2.7614 S.o2    
  16 O16           -5.4833     3.0380     2.2784 O.2     
  17 O17           -4.0012     1.2912     3.2125 O.2     
  18 C18           -3.5695     3.8134     3.9682 C.3     
  19 C19           -1.2072    -0.8828    -0.2508 C.3     
  20 C20            1.6796     3.2119     0.3706 C.ar    
  21 C21            0.7823     4.1218     0.9313 C.ar    
  22 C22            1.1637     5.4336     1.1228 C.ar    
  23 C23            2.4337     5.8481     0.7599 C.ar    
  24 C24            3.3282     4.9503     0.2028 C.ar    
  25 C25            2.9603     3.6345     0.0117 C.ar    
  26 Br26           2.9487     7.6481     1.0257 Br      
  27 C27            3.5212    -3.4221    -0.5681 C.3     
  28 C28            5.0483    -3.5153    -0.5658 C.3     
  29 H29            3.2002     0.7861     0.0363 H       
  30 H30           -1.7768     1.2932     2.0565 H       
  31 H31           -4.3319     4.3037     0.4468 H       
  32 H32           -2.8444     4.5345    -1.5001 H       
  33 H33           -0.8134     3.1546    -1.6704 H       
  34 H34           -3.6049     4.8164     3.5430 H       
  35 H35           -4.1782     3.7802     4.8718 H       
  36 H36           -2.5386     3.5596     4.2150 H       
  37 H37           -1.4888    -0.9498    -1.3016 H       
  38 H38           -0.9728    -1.8781     0.1268 H       
  39 H39           -2.0348    -0.4629     0.3211 H       
  40 H40           -0.2089     3.7996     1.2145 H       
  41 H41            0.4700     6.1387     1.5563 H       
  42 H42            4.3174     5.2796    -0.0790 H       
  43 H43            3.6604     2.9340    -0.4189 H       
  44 H44            3.1186    -4.0345     0.2388 H       
  45 H45            3.1367    -3.7807    -1.5229 H       
  46 H46            5.4509    -2.9030    -1.3727 H       
  47 H47            5.4328    -3.1568     0.3890 H       
  48 H48            5.3492    -4.5527    -0.7122 H       
@<TRIPOS>BOND
   1    1    2 1
   2    1    5 1
   3    1    9 1
   4    2    3 2
   5    2   19 1
   6    3    4 1
   7    3    6 1
   8    4    5 2
   9    4   29 1
  10    5   20 1
  11    6    7 2
  12    6    8 1
  13    8   27 1
  14    9   10 ar
  15    9   14 ar
  16   10   11 ar
  17   10   30 1
  18   11   12 ar
  19   11   15 1
  20   12   13 ar
  21   12   31 1
  22   13   14 ar
  23   13   32 1
  24   14   33 1
  25   15   16 2
  26   15   17 2
  27   15   18 1
  28   18   34 1
  29   18   35 1
  30   18   36 1
  31   19   37 1
  32   19   38 1
  33   19   39 1
  34   20   21 ar
  35   20   25 ar
  36   21   22 ar
  37   21   40 1
  38   22   23 ar
  39   22   41 1
  40   23   24 ar
  41   23   26 1
  42   24   25 ar
  43   24   42 1
  44   25   43 1
  45   27   28 1
  46   27   44 1
  47   27   45 1
  48   28   46 1
  49   28   47 1
  50   28   48 1

#	End of record

