#	Name: ASD06710051
#	Creating user name:	WinNT
#	Creation time:	15. 06. 2019 21:08

#	Modifying user name:	WinNT
#	Modification time:	15. 06. 2019 21:08

#	Program:	/corina/corina34_cracker 3.40 0067  02.08.2006

@<TRIPOS>MOLECULE
ASD06710051
  61   64    0    0    0
SMALL
NO_CHARGES


@<TRIPOS>ATOM
   1 N1            -0.2085     1.0515    -1.2629 N.am    
   2 C2             0.0948     0.6316    -0.0187 C.2     
   3 C3            -1.2231     0.5777     0.7283 C.3     
   4 N4            -2.2084     1.0145    -0.2760 N.am    
   5 C5            -1.5205     1.2729    -1.4029 C.2     
   6 C6            -3.5828     1.1395    -0.0932 C.ar    
   7 C7            -4.1694     2.4011    -0.0890 C.ar    
   8 C8            -4.3664     0.0007     0.0791 C.ar    
   9 C9            -5.7147     0.1132     0.2585 C.ar    
  10 C10           -6.3178     1.3778     0.2702 C.ar    
  11 C11           -5.5309     2.5267     0.0920 C.ar    
  12 C12           -7.7664     1.5005     0.4623 C.2     
  13 O13           -8.2863     2.5966     0.4720 O.2     
  14 C14           -8.6092     0.2651     0.6476 C.3     
  15 N15           -9.9927     0.6568     0.9484 N.3     
  16 F16           -6.1041     3.7500     0.1018 F       
  17 C17            0.7325     1.2385    -2.2800 C.ar    
  18 C18            1.6752     2.2550    -2.1743 C.ar    
  19 C19            0.7268     0.4037    -3.3923 C.ar    
  20 C20            1.6519     0.5847    -4.3961 C.ar    
  21 C21            2.5976     1.6091    -4.2960 C.ar    
  22 C22            2.6038     2.4423    -3.1742 C.ar    
  23 O23            1.1932     0.3541     0.4130 O.2     
  24 C24           -1.5219    -0.8500     1.1902 C.3     
  25 C25           -1.2064     1.5380     1.9192 C.3     
  26 S26           -2.2445     1.8144    -2.8567 S.2     
  27 C27          -10.0781     1.3283     2.2515 C.3     
  28 C28          -11.5009     1.8496     2.4659 C.3     
  29 C29          -12.4830     0.6762     2.4101 C.3     
  30 C30          -12.3398    -0.0354     1.0620 C.3     
  31 C31          -10.8927    -0.5021     0.8882 C.3     
  32 C32            3.5616     1.8003    -5.3375 C.1     
  33 N33            4.3264     1.9520    -6.1637 N.1     
  34 C34            3.6209     3.5486    -3.0616 C.3     
  35 F35            3.4276     4.2394    -1.8606 F       
  36 F36            4.9086     3.0021    -3.0832 F       
  37 F37            3.4709     4.4312    -4.1367 F       
  38 H38           -3.5591     3.2813    -0.2269 H       
  39 H39           -3.9049    -0.9757     0.0702 H       
  40 H40           -6.3172    -0.7733     0.3912 H       
  41 H41           -8.5901    -0.3283    -0.2665 H       
  42 H42           -8.2114    -0.3258     1.4727 H       
  43 H43            1.6791     2.8988    -1.3071 H       
  44 H44           -0.0040    -0.3878    -3.4687 H       
  45 H45            1.6470    -0.0642    -5.2593 H       
  46 H46           -0.7397    -1.1822     1.8727 H       
  47 H47           -2.4842    -0.8724     1.7018 H       
  48 H48           -1.5548    -1.5124     0.3252 H       
  49 H49           -1.0178     2.5518     1.5660 H       
  50 H50           -2.1702     1.5036     2.4272 H       
  51 H51           -0.4194     1.2427     2.6131 H       
  52 H52           -9.8277     0.6207     3.0418 H       
  53 H53           -9.3778     2.1632     2.2764 H       
  54 H54          -11.5680     2.3343     3.4399 H       
  55 H55          -11.7471     2.5677     1.6838 H       
  56 H56          -12.2614    -0.0229     3.2164 H       
  57 H57          -13.5017     1.0484     2.5192 H       
  58 H58          -13.0061    -0.8975     1.0329 H       
  59 H59          -12.5992     0.6531     0.2577 H       
  60 H60          -10.7840    -0.9966    -0.0770 H       
  61 H61          -10.6384    -1.2011     1.6849 H       
@<TRIPOS>BOND
   1    1    2 am
   2    1   17 1
   3    1    5 am
   4    2    3 1
   5    2   23 2
   6    3    4 1
   7    3   24 1
   8    3   25 1
   9    4    5 am
  10    4    6 1
  11    5   26 2
  12    6    7 ar
  13    6    8 ar
  14    7   11 ar
  15    7   38 1
  16    8    9 ar
  17    8   39 1
  18    9   10 ar
  19    9   40 1
  20   10   11 ar
  21   10   12 1
  22   11   16 1
  23   12   13 2
  24   12   14 1
  25   14   15 1
  26   14   41 1
  27   14   42 1
  28   15   27 1
  29   15   31 1
  30   17   18 ar
  31   17   19 ar
  32   18   22 ar
  33   18   43 1
  34   19   20 ar
  35   19   44 1
  36   20   21 ar
  37   20   45 1
  38   21   22 ar
  39   21   32 1
  40   22   34 1
  41   24   46 1
  42   24   47 1
  43   24   48 1
  44   25   49 1
  45   25   50 1
  46   25   51 1
  47   27   28 1
  48   27   52 1
  49   27   53 1
  50   28   29 1
  51   28   54 1
  52   28   55 1
  53   29   30 1
  54   29   56 1
  55   29   57 1
  56   30   31 1
  57   30   58 1
  58   30   59 1
  59   31   60 1
  60   31   61 1
  61   32   33 3
  62   34   35 1
  63   34   36 1
  64   34   37 1

#	End of record

