#	Name: ASD06170147
#	Creating user name:	WinNT
#	Creation time:	15. 06. 2019 21:05

#	Modifying user name:	WinNT
#	Modification time:	15. 06. 2019 21:05

#	Program:	/corina/corina34_cracker 3.40 0067  02.08.2006

@<TRIPOS>MOLECULE
ASD06170147
  84   88    0    0    0
SMALL
NO_CHARGES


@<TRIPOS>ATOM
   1 C1            -3.2041    -3.8930     2.2954 C.ar    
   2 C2            -2.3626    -4.0438     1.1898 C.ar    
   3 C3            -1.1164    -4.6764     1.3489 C.ar    
   4 C4            -0.7621    -5.1328     2.6082 C.ar    
   5 C5            -1.6434    -4.9515     3.6636 C.ar    
   6 N6            -2.7986    -4.3600     3.4957 N.ar    
   7 C7            -4.4038    -3.2393     1.9724 C.2     
   8 C8            -4.5386    -2.8784     0.6914 C.2     
   9 S9            -3.1264    -3.3533    -0.2363 S.3     
  10 C10           -5.7114    -2.1845     0.1356 C.2     
  11 O11           -6.7052    -2.0270     0.8189 O.2     
  12 N12           -5.6842    -1.7235    -1.1306 N.am    
  13 C13           -4.4498    -1.8089    -1.9149 C.3     
  14 O14           -0.2797    -4.8366     0.2923 O.3     
  15 C15            0.9532    -5.3601     0.5277 C.ar    
  16 C16            1.1326    -6.7383     0.5372 C.ar    
  17 C17            2.3859    -7.2699     0.7761 C.ar    
  18 C18            3.4649    -6.4262     1.0065 C.ar    
  19 C19            3.2839    -5.0498     0.9967 C.ar    
  20 C20            2.0321    -4.5188     0.7526 C.ar    
  21 C21            5.0750    -8.1553     0.7186 C.2     
  22 O22            4.3165    -8.7185    -0.0485 O.2     
  23 N23            4.7350    -6.9638     1.2491 N.am    
  24 N24            8.0564   -10.1933     1.1600 N.pl3   
  25 N25            8.3914    -9.1241     1.9961 N.am    
  26 C26            7.3832    -8.2278     1.9721 C.2     
  27 C27            6.3601    -8.7735     1.0662 C.2     
  28 C28            6.8466    -9.9821     0.6076 C.2     
  29 C29            9.5733    -9.0040     2.7343 C.ar    
  30 C30           10.8038    -9.1476     2.1063 C.ar    
  31 C31           11.9690    -9.0280     2.8380 C.ar    
  32 C32           11.9115    -8.7656     4.1945 C.ar    
  33 C33           10.6880    -8.6225     4.8229 C.ar    
  34 C34            9.5192    -8.7353     4.0958 C.ar    
  35 O35            7.3303    -7.1752     2.5804 O.2     
  36 C36            6.1424   -10.9082    -0.3503 C.3     
  37 C37            8.8993   -11.3665     0.9161 C.3     
  38 C38            8.5004   -12.4894     1.8756 C.3     
  39 C39            9.4600   -13.6691     1.7072 C.3     
  40 C40            8.5688   -11.9779     3.3159 C.3     
  41 O41            7.1675   -12.9143     1.5839 O.3     
  42 F42            0.0823    -7.5580     0.3134 F       
  43 C43           -6.8891    -1.1369    -1.7226 C.3     
  44 C44           -6.9122     0.3678    -1.4467 C.3     
  45 N45           -8.1204     0.9560    -2.0403 N.3     
  46 C46           -8.3009     2.3454    -1.5990 C.3     
  47 C47           -8.0820     0.8701    -3.5063 C.3     
  48 H48            0.1870    -5.6234     2.7657 H       
  49 H49           -1.3701    -5.3065     4.6462 H       
  50 H50           -5.1678    -3.0412     2.7095 H       
  51 H51           -4.3686    -2.8016    -2.3577 H       
  52 H52           -4.4690    -1.0589    -2.7056 H       
  53 H53           -3.5933    -1.6299    -1.2650 H       
  54 H54            2.5261    -8.3407     0.7840 H       
  55 H55            4.1229    -4.3937     1.1758 H       
  56 H56            1.8929    -3.4479     0.7411 H       
  57 H57            5.3700    -6.4788     1.7989 H       
  58 H58           10.8493    -9.3529     1.0470 H       
  59 H59           12.9261    -9.1399     2.3503 H       
  60 H60           12.8241    -8.6725     4.7645 H       
  61 H61           10.6465    -8.4180     5.8826 H       
  62 H62            8.5640    -8.6190     4.5863 H       
  63 H63            5.5272   -11.6118     0.2105 H       
  64 H64            5.5095   -10.3257    -1.0198 H       
  65 H65            6.8811   -11.4568    -0.9346 H       
  66 H66            8.7655   -11.7025    -0.1122 H       
  67 H67            9.9444   -11.1033     1.0792 H       
  68 H68           10.4767   -13.3451     1.9298 H       
  69 H69            9.1758   -14.4691     2.3908 H       
  70 H70            9.4112   -14.0335     0.6811 H       
  71 H71            7.8851   -11.1375     3.4359 H       
  72 H72            8.2846   -12.7779     3.9995 H       
  73 H73            9.5855   -11.6539     3.5385 H       
  74 H74            7.0501   -13.2516     0.6853 H       
  75 H75           -6.8857    -1.3089    -2.7990 H       
  76 H76           -7.7724    -1.6005    -1.2834 H       
  77 H77           -6.9156     0.5398    -0.3704 H       
  78 H78           -6.0289     0.8314    -1.8860 H       
  79 H79           -7.4381     2.9382    -1.9028 H       
  80 H80           -9.2024     2.7567    -2.0532 H       
  81 H81           -8.3962     2.3724    -0.5135 H       
  82 H82           -8.0181    -0.1756    -3.8074 H       
  83 H83           -8.9881     1.3126    -3.9201 H       
  84 H84           -7.2112     1.4094    -3.8792 H       
@<TRIPOS>BOND
   1    1    2 ar
   2    1    6 ar
   3    1    7 1
   4    2    3 ar
   5    2    9 1
   6    3    4 ar
   7    3   14 1
   8    4    5 ar
   9    4   48 1
  10    5    6 ar
  11    5   49 1
  12    7    8 2
  13    7   50 1
  14    8    9 1
  15    8   10 1
  16   10   11 2
  17   10   12 am
  18   12   13 1
  19   12   43 1
  20   13   51 1
  21   13   52 1
  22   13   53 1
  23   14   15 1
  24   15   16 ar
  25   15   20 ar
  26   16   17 ar
  27   16   42 1
  28   17   18 ar
  29   17   54 1
  30   18   19 ar
  31   18   23 1
  32   19   20 ar
  33   19   55 1
  34   20   56 1
  35   21   22 2
  36   21   23 am
  37   21   27 1
  38   23   57 1
  39   24   25 1
  40   24   28 1
  41   24   37 1
  42   25   26 am
  43   25   29 1
  44   26   27 1
  45   26   35 2
  46   27   28 2
  47   28   36 1
  48   29   30 ar
  49   29   34 ar
  50   30   31 ar
  51   30   58 1
  52   31   32 ar
  53   31   59 1
  54   32   33 ar
  55   32   60 1
  56   33   34 ar
  57   33   61 1
  58   34   62 1
  59   36   63 1
  60   36   64 1
  61   36   65 1
  62   37   38 1
  63   37   66 1
  64   37   67 1
  65   38   39 1
  66   38   40 1
  67   38   41 1
  68   39   68 1
  69   39   69 1
  70   39   70 1
  71   40   71 1
  72   40   72 1
  73   40   73 1
  74   41   74 1
  75   43   44 1
  76   43   75 1
  77   43   76 1
  78   44   45 1
  79   44   77 1
  80   44   78 1
  81   45   46 1
  82   45   47 1
  83   46   79 1
  84   46   80 1
  85   46   81 1
  86   47   82 1
  87   47   83 1
  88   47   84 1

#	End of record

