#	Name: ASD01913630
#	Creating user name:	WinNT
#	Creation time:	15. 06. 2019 20:01

#	Modifying user name:	WinNT
#	Modification time:	15. 06. 2019 20:01

#	Program:	/corina/corina34_cracker 3.40 0067  02.08.2006

@<TRIPOS>MOLECULE
ASD01913630
  36   38    0    0    0
SMALL
NO_CHARGES


@<TRIPOS>ATOM
   1 C1            -0.0426     1.2982    -0.2755 C.ar    
   2 C2             0.0319    -0.0544    -0.0002 C.ar    
   3 C3             1.2564    -0.6402     0.2610 C.ar    
   4 C4             2.4066     0.1265     0.2464 C.ar    
   5 C5             2.3322     1.4790    -0.0297 C.ar    
   6 C6             1.1075     2.0650    -0.2895 C.ar    
   7 C7             3.5860     2.3150    -0.0450 C.3     
   8 O8             4.1391     2.3198    -1.3626 O.3     
   9 C9             5.2774     3.0308    -1.5493 C.ar    
  10 N10            5.8181     3.6768    -0.5278 N.ar    
  11 C11            6.9230     4.3809    -0.6586 C.ar    
  12 C12            7.5669     4.4702    -1.8932 C.ar    
  13 C13            7.0199     3.7974    -2.9959 C.ar    
  14 C14            5.8645     3.0669    -2.8106 C.ar    
  15 C15            8.8050     5.2612    -2.0368 C.2     
  16 N16            9.3330     5.4703    -3.2591 N.am    
  17 O17            9.3483     5.7241    -1.0526 O.2     
  18 C18           10.4751     6.2188    -3.8053 C.3     
  19 C19            9.6973     6.3377    -5.1233 C.3     
  20 C20            9.0247     5.0450    -4.6327 C.3     
  21 H21           -0.9988     1.7550    -0.4839 H       
  22 H22           -0.8667    -0.6535     0.0111 H       
  23 H23            1.3145    -1.6968     0.4767 H       
  24 H24            3.3632    -0.3310     0.4512 H       
  25 H25            1.0494     3.1216    -0.5056 H       
  26 H26            3.3456     3.3358     0.2519 H       
  27 H27            4.3112     1.8951     0.6520 H       
  28 H28            7.3345     4.8945     0.1977 H       
  29 H29            7.4941     3.8465    -3.9650 H       
  30 H30            5.4157     2.5359    -3.6371 H       
  31 H31           10.6424     7.1763    -3.3121 H       
  32 H32           11.3840     5.6231    -3.8899 H       
  33 H33            9.0324     7.2000    -5.1736 H       
  34 H34           10.3089     6.2096    -6.0163 H       
  35 H35            9.5491     4.1397    -4.9386 H       
  36 H36            7.9559     5.0050    -4.8430 H       
@<TRIPOS>BOND
   1    1    2 ar
   2    1    6 ar
   3    1   21 1
   4    2    3 ar
   5    2   22 1
   6    3    4 ar
   7    3   23 1
   8    4    5 ar
   9    4   24 1
  10    5    6 ar
  11    5    7 1
  12    6   25 1
  13    7    8 1
  14    7   26 1
  15    7   27 1
  16    8    9 1
  17    9   10 ar
  18    9   14 ar
  19   10   11 ar
  20   11   12 ar
  21   11   28 1
  22   12   13 ar
  23   12   15 1
  24   13   14 ar
  25   13   29 1
  26   14   30 1
  27   15   16 am
  28   15   17 2
  29   16   18 1
  30   16   20 1
  31   18   19 1
  32   18   31 1
  33   18   32 1
  34   19   20 1
  35   19   33 1
  36   19   34 1
  37   20   35 1
  38   20   36 1

#	End of record

