#	Name: ASD01440108
#	Creating user name:	WinNT
#	Creation time:	15. 06. 2019 19:21

#	Modifying user name:	WinNT
#	Modification time:	15. 06. 2019 19:21

#	Program:	/corina/corina34_cracker 3.40 0067  02.08.2006

@<TRIPOS>MOLECULE
ASD01440108
  34   36    0    0    0
SMALL
NO_CHARGES


@<TRIPOS>ATOM
   1 N1            -0.0161     1.3392     0.0094 N.am    
   2 C2             0.0021    -0.0041     0.0020 C.2     
   3 C3             1.4546    -0.4304    -0.0141 C.3     
   4 C4             2.2189     0.8739    -0.0144 C.ar    
   5 C5             3.5597     1.1678    -0.0256 C.ar    
   6 C6             3.9787     2.5024    -0.0225 C.ar    
   7 C7             3.0242     3.5236    -0.0079 C.ar    
   8 C8             1.6837     3.2180     0.0033 C.ar    
   9 C9             1.2639     1.8861     0.0001 C.ar    
  10 C10            5.3749     2.8201    -0.0336 C.1     
  11 N11            6.4826     3.0721    -0.0424 N.1     
  12 O12           -0.9638    -0.7375     0.0073 O.2     
  13 C13            1.6041    -0.6896     2.4825 C.ar    
  14 C14            1.7828    -1.2348     1.2173 C.ar    
  15 C15            2.2659    -2.5264     1.1029 C.ar    
  16 C16            2.5545    -3.2307     2.2640 C.ar    
  17 C17            2.3525    -2.6260     3.4884 C.ar    
  18 N18            1.8905    -1.3923     3.5656 N.ar    
  19 O19            1.1365     0.5779     2.6080 O.3     
  20 C20            0.9745     1.0811     3.9356 C.3     
  21 C21            0.4420     2.5142     3.8764 C.3     
  22 Cl22           1.8190    -1.3768    -1.5049 Cl      
  23 H23           -0.8292     1.8681     0.0162 H       
  24 H24            4.2888     0.3712    -0.0365 H       
  25 H25            3.3408     4.5562    -0.0050 H       
  26 H26            0.9516     4.0120     0.0145 H       
  27 H27            2.4146    -2.9766     0.1325 H       
  28 H28            2.9326    -4.2409     2.2099 H       
  29 H29            2.5751    -3.1696     4.3947 H       
  30 H30            0.2680     0.4531     4.4785 H       
  31 H31            1.9367     1.0718     4.4476 H       
  32 H32           -0.5202     2.5234     3.3644 H       
  33 H33            0.3184     2.8980     4.8891 H       
  34 H34            1.1485     3.1421     3.3335 H       
@<TRIPOS>BOND
   1    1    2 am
   2    1    9 1
   3    1   23 1
   4    2    3 1
   5    2   12 2
   6    3    4 1
   7    3   14 1
   8    3   22 1
   9    4    5 ar
  10    4    9 ar
  11    5    6 ar
  12    5   24 1
  13    6    7 ar
  14    6   10 1
  15    7    8 ar
  16    7   25 1
  17    8    9 ar
  18    8   26 1
  19   10   11 3
  20   13   14 ar
  21   13   18 ar
  22   13   19 1
  23   14   15 ar
  24   15   16 ar
  25   15   27 1
  26   16   17 ar
  27   16   28 1
  28   17   18 ar
  29   17   29 1
  30   19   20 1
  31   20   21 1
  32   20   30 1
  33   20   31 1
  34   21   32 1
  35   21   33 1
  36   21   34 1

#	End of record

