#	Name: ASD01812767
#	Creating user name:	WinNT
#	Creation time:	15. 06. 2019 19:29

#	Modifying user name:	WinNT
#	Modification time:	15. 06. 2019 19:29

#	Program:	/corina/corina34_cracker 3.40 0067  02.08.2006

@<TRIPOS>MOLECULE
ASD01812767
  59   63    0    0    0
SMALL
NO_CHARGES


@<TRIPOS>ATOM
   1 N1             0.0026     1.3185    -0.2218 N.ar    
   2 C2             0.0318     0.0058    -0.3454 C.ar    
   3 C3             1.2339    -0.6842    -0.3686 C.ar    
   4 C4             2.4112     0.0206    -0.2603 C.ar    
   5 C5             2.3614     1.4133    -0.1298 C.ar    
   6 C6             1.1073     2.0396    -0.1145 C.ar    
   7 C7             3.8681    -0.3579    -0.2449 C.3     
   8 N8             4.6152     0.8977    -0.0994 N.am    
   9 C9             3.7395     1.9164    -0.0335 C.2     
  10 C10            6.0736     1.0206    -0.0368 C.3     
  11 C11            6.6231     1.1972    -1.4289 C.ar    
  12 C12            6.7693     2.4678    -1.9559 C.ar    
  13 C13            7.2719     2.6354    -3.2303 C.ar    
  14 C14            7.6324     1.5217    -3.9864 C.ar    
  15 C15            7.4829     0.2441    -3.4504 C.ar    
  16 C16            6.9845     0.0885    -2.1728 C.ar    
  17 O17            1.0259     3.3855     0.0104 O.3     
  18 O18            4.0443     3.0872     0.0876 O.2     
  19 C19           -0.2022     3.9617    -0.0794 C.ar    
  20 C20            8.1729     1.6956    -5.3571 C.ar    
  21 C21            8.3292     2.9695    -5.9110 C.ar    
  22 C22            8.8354     3.0861    -7.1890 C.ar    
  23 N23            9.1696     2.0163    -7.8853 N.ar    
  24 C24            9.0378     0.7969    -7.3998 C.ar    
  25 C25            8.5449     0.5906    -6.1275 C.ar    
  26 C26            9.4369    -0.3863    -8.2435 C.3     
  27 C27           -1.0087     4.0612     1.0480 C.ar    
  28 C28           -2.2571     4.6484     0.9529 C.ar    
  29 C29           -2.7020     5.1358    -0.2625 C.ar    
  30 C30           -1.9011     5.0372    -1.3847 C.ar    
  31 C31           -0.6501     4.4565    -1.2946 C.ar    
  32 F32           -0.5739     3.5845     2.2350 F       
  33 C33           -2.3903     5.5688    -2.7073 C.3     
  34 O34           -2.0022     6.9373    -2.8435 O.3     
  35 C35           -2.4192     7.5404    -4.0701 C.3     
  36 H36           -0.8960    -0.5406    -0.4296 H       
  37 H37            1.2465    -1.7594    -0.4699 H       
  38 H38            4.0753    -1.0172     0.5980 H       
  39 H39            4.1379    -0.8484    -1.1802 H       
  40 H40            6.3396     1.8853     0.5712 H       
  41 H41            6.4954     0.1196     0.4087 H       
  42 H42            6.4893     3.3302    -1.3692 H       
  43 H43            7.3854     3.6278    -3.6409 H       
  44 H44            7.7607    -0.6225    -4.0321 H       
  45 H45            6.8724    -0.9010    -1.7548 H       
  46 H46            8.0574     3.8494    -5.3469 H       
  47 H47            8.9594     4.0661    -7.6256 H       
  48 H48            8.4443    -0.4103    -5.7344 H       
  49 H49           10.4860    -0.6225    -8.0650 H       
  50 H50            8.8209    -1.2456    -7.9787 H       
  51 H51            9.2926    -0.1466    -9.2970 H       
  52 H52           -2.8851     4.7260     1.8281 H       
  53 H53           -3.6772     5.5941    -0.3350 H       
  54 H54           -0.0234     4.3844    -2.1713 H       
  55 H55           -1.9536     4.9849    -3.5175 H       
  56 H56           -3.4768     5.4933    -2.7497 H       
  57 H57           -1.9831     6.9974    -4.9086 H       
  58 H58           -3.5063     7.5058    -4.1408 H       
  59 H59           -2.0862     8.5779    -4.0964 H       
@<TRIPOS>BOND
   1    1    2 ar
   2    1    6 ar
   3    2    3 ar
   4    2   36 1
   5    3    4 ar
   6    3   37 1
   7    4    7 1
   8    4    5 ar
   9    5    6 ar
  10    5    9 1
  11    6   17 1
  12    7    8 1
  13    7   38 1
  14    7   39 1
  15    8    9 am
  16    8   10 1
  17    9   18 2
  18   10   11 1
  19   10   40 1
  20   10   41 1
  21   11   12 ar
  22   11   16 ar
  23   12   13 ar
  24   12   42 1
  25   13   14 ar
  26   13   43 1
  27   14   15 ar
  28   14   20 1
  29   15   16 ar
  30   15   44 1
  31   16   45 1
  32   17   19 1
  33   19   27 ar
  34   19   31 ar
  35   20   21 ar
  36   20   25 ar
  37   21   22 ar
  38   21   46 1
  39   22   23 ar
  40   22   47 1
  41   23   24 ar
  42   24   25 ar
  43   24   26 1
  44   25   48 1
  45   26   49 1
  46   26   50 1
  47   26   51 1
  48   27   28 ar
  49   27   32 1
  50   28   29 ar
  51   28   52 1
  52   29   30 ar
  53   29   53 1
  54   30   31 ar
  55   30   33 1
  56   31   54 1
  57   33   34 1
  58   33   55 1
  59   33   56 1
  60   34   35 1
  61   35   57 1
  62   35   58 1
  63   35   59 1

#	End of record

