#	Name: ASD06170238
#	Creating user name:	WinNT
#	Creation time:	15. 06. 2019 21:05

#	Modifying user name:	WinNT
#	Modification time:	15. 06. 2019 21:05

#	Program:	/corina/corina34_cracker 3.40 0067  02.08.2006

@<TRIPOS>MOLECULE
ASD06170238
  64   68    0    0    0
SMALL
NO_CHARGES


@<TRIPOS>ATOM
   1 C1             0.3251     1.7414    -0.4629 C.2     
   2 C2             0.5249     0.2794    -0.4962 C.ar    
   3 C3             1.7499    -0.2511    -0.9105 C.ar    
   4 C4             1.9323    -1.6173    -0.9396 C.ar    
   5 C5             0.8978    -2.4669    -0.5572 C.ar    
   6 C6            -0.3204    -1.9418    -0.1451 C.ar    
   7 C7            -0.5079    -0.5774    -0.1081 C.ar    
   8 O8             1.2270     2.4862    -0.7964 O.2     
   9 N9            -0.8586     2.2510    -0.0684 N.am    
  10 F10            3.1156    -2.1320    -1.3398 F       
  11 N11           -0.6544     5.7835     0.7090 N.am    
  12 N12           -1.7926     5.7052    -0.1015 N.pl3   
  13 C13           -1.9903     4.4019    -0.4740 C.2     
  14 C14           -1.0136     3.6438     0.0733 C.2     
  15 C15           -0.1476     4.5401     0.8403 C.2     
  16 C16           -0.1303     6.9482     1.2785 C.ar    
  17 C17           -0.0071     8.1018     0.5148 C.ar    
  18 C18            0.5109     9.2504     1.0803 C.ar    
  19 C19            0.9067     9.2528     2.4053 C.ar    
  20 C20            0.7853     8.1060     3.1684 C.ar    
  21 C21            0.2628     6.9557     2.6106 C.ar    
  22 O22            0.8421     4.2239     1.4756 O.2     
  23 C23           -3.1100     3.8971    -1.3472 C.3     
  24 C24           -2.6380     6.8369    -0.4898 C.3     
  25 O25            1.0798    -3.8119    -0.5876 O.3     
  26 N26            2.8593    -5.5782     2.6874 N.ar    
  27 C27            2.7313    -4.2735     2.6294 C.ar    
  28 C28            2.1370    -3.6432     1.5433 C.ar    
  29 C29            1.6639    -4.3997     0.4857 C.ar    
  30 C30            1.8075    -5.8034     0.5588 C.ar    
  31 C31            1.3528    -6.6362    -0.4746 C.ar    
  32 C32            1.5086    -7.9883    -0.3707 C.ar    
  33 C33            2.1186    -8.5530     0.7586 C.ar    
  34 C34            2.5695    -7.7657     1.7786 C.ar    
  35 C35            2.4239    -6.3707     1.7007 C.ar    
  36 O36            2.2623    -9.9018     0.8389 O.3     
  37 C37            2.8913   -10.4184     2.0134 C.3     
  38 O38            1.0676    -8.7956    -1.3720 O.3     
  39 C39            0.4546    -8.1600    -2.4955 C.3     
  40 H40            2.5520     0.4082    -1.2078 H       
  41 H41           -1.1206    -2.6041     0.1504 H       
  42 H42           -1.4541    -0.1706     0.2169 H       
  43 H43           -1.6037     1.6586     0.1179 H       
  44 H44           -0.3157     8.1005    -0.5202 H       
  45 H45            0.6073    10.1476     0.4869 H       
  46 H46            1.3118    10.1522     2.8450 H       
  47 H47            1.0953     8.1112     4.2029 H       
  48 H48            0.1638     6.0617     3.2085 H       
  49 H49           -2.7975     3.9252    -2.3911 H       
  50 H50           -3.3542     2.8720    -1.0685 H       
  51 H51           -3.9880     4.5290    -1.2136 H       
  52 H52           -2.2409     7.2927    -1.3968 H       
  53 H53           -3.6532     6.4855    -0.6742 H       
  54 H54           -2.6490     7.5744     0.3127 H       
  55 H55            3.0974    -3.6731     3.4491 H       
  56 H56            2.0452    -2.5673     1.5243 H       
  57 H57            0.8816    -6.2097    -1.3478 H       
  58 H58            3.0368    -8.2141     2.6429 H       
  59 H59            3.8990   -10.0111     2.0950 H       
  60 H60            2.3118   -10.1329     2.8914 H       
  61 H61            2.9427   -11.5054     1.9499 H       
  62 H62           -0.4200    -7.6003    -2.1638 H       
  63 H63            1.1669    -7.4787    -2.9608 H       
  64 H64            0.1492    -8.9161    -3.2188 H       
@<TRIPOS>BOND
   1    1    2 1
   2    1    8 2
   3    1    9 am
   4    2    3 ar
   5    2    7 ar
   6    3    4 ar
   7    3   40 1
   8    4    5 ar
   9    4   10 1
  10    5    6 ar
  11    5   25 1
  12    6    7 ar
  13    6   41 1
  14    7   42 1
  15    9   14 1
  16    9   43 1
  17   11   12 1
  18   11   15 am
  19   11   16 1
  20   12   13 1
  21   12   24 1
  22   13   14 2
  23   13   23 1
  24   14   15 1
  25   15   22 2
  26   16   17 ar
  27   16   21 ar
  28   17   18 ar
  29   17   44 1
  30   18   19 ar
  31   18   45 1
  32   19   20 ar
  33   19   46 1
  34   20   21 ar
  35   20   47 1
  36   21   48 1
  37   23   49 1
  38   23   50 1
  39   23   51 1
  40   24   52 1
  41   24   53 1
  42   24   54 1
  43   25   29 1
  44   26   27 ar
  45   26   35 ar
  46   27   28 ar
  47   27   55 1
  48   28   29 ar
  49   28   56 1
  50   29   30 ar
  51   30   31 ar
  52   30   35 ar
  53   31   32 ar
  54   31   57 1
  55   32   33 ar
  56   32   38 1
  57   33   34 ar
  58   33   36 1
  59   34   35 ar
  60   34   58 1
  61   36   37 1
  62   37   59 1
  63   37   60 1
  64   37   61 1
  65   38   39 1
  66   39   62 1
  67   39   63 1
  68   39   64 1

#	End of record

