#	Name: ASD03331256
#	Creating user name:	WinNT
#	Creation time:	15. 06. 2019 20:38

#	Modifying user name:	WinNT
#	Modification time:	15. 06. 2019 20:38

#	Program:	/corina/corina34_cracker 3.40 0067  02.08.2006

@<TRIPOS>MOLECULE
ASD03331256
  66   71    0    0    0
SMALL
NO_CHARGES


@<TRIPOS>ATOM
   1 N1            -0.0842     1.3494     0.5382 N.am    
   2 C2             0.0381     0.0078     1.1284 C.3     
   3 C3             0.6499    -0.9303     0.0825 C.3     
   4 N4             1.9064    -0.3528    -0.4132 N.3     
   5 C5             1.6717     0.9249    -1.0989 C.3     
   6 C6             1.1018     1.9390    -0.1014 C.3     
   7 C7            -1.2535     2.0184     0.5774 C.2     
   8 O8            -2.2493     1.4768     1.0174 O.2     
   9 N9            -1.3191     3.2876     0.1289 N.am    
  10 C10           -2.5578     3.9310     0.0282 C.ar    
  11 C11           -2.6516     5.2986     0.2506 C.ar    
  12 C12           -3.8755     5.9307     0.1500 C.ar    
  13 C13           -5.0066     5.2033    -0.1719 C.ar    
  14 C14           -4.9165     3.8414    -0.3940 C.ar    
  15 C15           -3.6947     3.2043    -0.3001 C.ar    
  16 C16            2.6111    -1.2986    -1.2889 C.3     
  17 C17            3.7570    -0.5951    -1.9693 C.ar    
  18 C18            5.0050    -0.5734    -1.3747 C.ar    
  19 C19            6.0586     0.0717    -1.9962 C.ar    
  20 C20            5.8666     0.6962    -3.2130 C.ar    
  21 C21            4.6149     0.6756    -3.8122 C.ar    
  22 C22            3.5609     0.0228    -3.1893 C.ar    
  23 O23            4.4232     1.2896    -5.0091 O.3     
  24 C24            4.8784     0.6656    -6.1258 C.ar    
  25 C25            5.3960    -0.5835    -6.0337 C.ar    
  26 C26            4.8003     1.3444    -7.4178 C.ar    
  27 C27            5.2752     0.6895    -8.5756 C.ar    
  28 C28            5.8355    -0.6589    -8.4451 C.ar    
  29 C29            5.8802    -1.2675    -7.1708 C.ar    
  30 C30            6.3191    -1.3496    -9.5591 C.ar    
  31 C31            6.8360    -2.6043    -9.4078 C.ar    
  32 C32            6.8871    -3.2047    -8.1552 C.ar    
  33 C33            6.4175    -2.5590    -7.0500 C.ar    
  34 C34            4.2630     2.6323    -7.5296 C.ar    
  35 C35            4.2051     3.2367    -8.7519 C.ar    
  36 C36            4.6724     2.5902    -9.8899 C.ar    
  37 C37            5.2020     1.3336    -9.8124 C.ar    
  38 H38            0.6850     0.0508     2.0047 H       
  39 H39           -0.9480    -0.3573     1.4155 H       
  40 H40            0.8499    -1.9007     0.5369 H       
  41 H41           -0.0461    -1.0533    -0.7473 H       
  42 H42            2.6127     1.3000    -1.5013 H       
  43 H43            0.9614     0.7761    -1.9122 H       
  44 H44            0.8189     2.8508    -0.6274 H       
  45 H45            1.8509     2.1677     0.6566 H       
  46 H46           -0.5077     3.7551    -0.1241 H       
  47 H47           -1.7686     5.8671     0.5024 H       
  48 H48           -3.9492     6.9942     0.3232 H       
  49 H49           -5.9625     5.6999    -0.2496 H       
  50 H50           -5.8017     3.2761    -0.6452 H       
  51 H51           -3.6242     2.1414    -0.4780 H       
  52 H52            2.9952    -2.1274    -0.6942 H       
  53 H53            1.9210    -1.6804    -2.0413 H       
  54 H54            5.1572    -1.0609    -0.4231 H       
  55 H55            7.0324     0.0874    -1.5294 H       
  56 H56            6.6895     1.2005    -3.6975 H       
  57 H57            2.5860     0.0053    -3.6535 H       
  58 H58            5.4395    -1.0669    -5.0688 H       
  59 H59            6.2839    -0.8927   -10.5371 H       
  60 H60            7.2088    -3.1362   -10.2707 H       
  61 H61            7.2995    -4.1981    -8.0568 H       
  62 H62            6.4640    -3.0375    -6.0829 H       
  63 H63            3.8958     3.1450    -6.6528 H       
  64 H64            3.7902     4.2302    -8.8360 H       
  65 H65            4.6163     3.0874   -10.8470 H       
  66 H66            5.5626     0.8407   -10.7032 H       
@<TRIPOS>BOND
   1    1    2 1
   2    1    6 1
   3    1    7 am
   4    2    3 1
   5    2   38 1
   6    2   39 1
   7    3    4 1
   8    3   40 1
   9    3   41 1
  10    4    5 1
  11    4   16 1
  12    5    6 1
  13    5   42 1
  14    5   43 1
  15    6   44 1
  16    6   45 1
  17    7    8 2
  18    7    9 am
  19    9   10 1
  20    9   46 1
  21   10   11 ar
  22   10   15 ar
  23   11   12 ar
  24   11   47 1
  25   12   13 ar
  26   12   48 1
  27   13   14 ar
  28   13   49 1
  29   14   15 ar
  30   14   50 1
  31   15   51 1
  32   16   17 1
  33   16   52 1
  34   16   53 1
  35   17   18 ar
  36   17   22 ar
  37   18   19 ar
  38   18   54 1
  39   19   20 ar
  40   19   55 1
  41   20   21 ar
  42   20   56 1
  43   21   22 ar
  44   21   23 1
  45   22   57 1
  46   23   24 1
  47   24   25 ar
  48   24   26 ar
  49   25   29 ar
  50   25   58 1
  51   26   27 ar
  52   26   34 ar
  53   27   28 ar
  54   27   37 ar
  55   28   29 ar
  56   28   30 ar
  57   29   33 ar
  58   30   31 ar
  59   30   59 1
  60   31   32 ar
  61   31   60 1
  62   32   33 ar
  63   32   61 1
  64   33   62 1
  65   34   35 ar
  66   34   63 1
  67   35   36 ar
  68   35   64 1
  69   36   37 ar
  70   36   65 1
  71   37   66 1

#	End of record

