#	Name: ASD01900406
#	Creating user name:	WinNT
#	Creation time:	15. 06. 2019 19:51

#	Modifying user name:	WinNT
#	Modification time:	15. 06. 2019 19:51

#	Program:	/corina/corina34_cracker 3.40 0067  02.08.2006

@<TRIPOS>MOLECULE
ASD01900406
  24   26    0    0    0
SMALL
NO_CHARGES


@<TRIPOS>ATOM
   1 C1            -0.0317     1.3950     0.2102 C.ar    
   2 C2            -0.0051    -0.0084     0.0992 C.ar    
   3 C3             1.2102    -0.6761     0.2456 C.ar    
   4 C4             2.3422     0.0745     0.4950 C.ar    
   5 C5             2.2424     1.4563     0.5921 C.ar    
   6 N6             1.0896     2.0701     0.4512 N.ar    
   7 N7            -2.1249     0.7055    -0.1926 N.2     
   8 N8            -1.2898    -0.4155    -0.1468 N.pl3   
   9 C9            -1.4287     1.7910     0.0178 C.2     
  10 N10           -1.9266     3.0975     0.0450 N.pl3   
  11 C11           -5.9393     3.7533    -0.2048 C.ar    
  12 N12           -5.1109     4.6982    -0.6022 N.ar    
  13 C13           -3.8014     4.5247    -0.5374 C.ar    
  14 C14           -3.3030     3.3226    -0.0404 C.ar    
  15 C15           -4.2131     2.3505     0.3687 C.ar    
  16 N16           -5.5078     2.6025     0.2712 N.ar    
  17 H17            1.2647    -1.7518     0.1665 H       
  18 H18            3.2999    -0.4104     0.6141 H       
  19 H19            3.1310     2.0383     0.7873 H       
  20 H20           -1.5748    -1.3346    -0.2695 H       
  21 H21           -1.3165     3.8475     0.1231 H       
  22 H22           -7.0032     3.9289    -0.2669 H       
  23 H23           -3.1285     5.3033    -0.8652 H       
  24 H24           -3.8667     1.4051     0.7593 H       
@<TRIPOS>BOND
   1    1    2 ar
   2    1    6 ar
   3    1    9 1
   4    2    3 ar
   5    2    8 1
   6    3    4 ar
   7    3   17 1
   8    4    5 ar
   9    4   18 1
  10    5    6 ar
  11    5   19 1
  12    7    8 1
  13    7    9 2
  14    8   20 1
  15    9   10 1
  16   10   14 1
  17   10   21 1
  18   11   12 ar
  19   11   16 ar
  20   11   22 1
  21   12   13 ar
  22   13   14 ar
  23   13   23 1
  24   14   15 ar
  25   15   16 ar
  26   15   24 1

#	End of record

