#	Name: ASD01917210
#	Creating user name:	WinNT
#	Creation time:	15. 06. 2019 20:08

#	Modifying user name:	WinNT
#	Modification time:	15. 06. 2019 20:08

#	Program:	/corina/corina34_cracker 3.40 0067  02.08.2006

@<TRIPOS>MOLECULE
ASD01917210
  63   63    0    0    0
SMALL
NO_CHARGES


@<TRIPOS>ATOM
   1 N1            -0.0169     1.3961     0.0097 N.2     
   2 N2             0.0021    -0.0041     0.0020 N.pl3   
   3 C3             1.3093    -0.4042    -0.0126 C.2     
   4 C4             2.0839     0.7387    -0.0139 C.2     
   5 C5             1.2196     1.8356     0.0003 C.2     
   6 C6             1.7982    -1.7906    -0.0240 C.2     
   7 O7             2.9931    -2.0136    -0.0367 O.2     
   8 O8             0.9214    -2.8147    -0.0204 O.3     
   9 O9             1.5968     3.1422     0.0033 O.3     
  10 Si10           1.7954     3.7719     1.4947 Si      
  11 C11            0.1906     3.6608     2.4344 C.3     
  12 C12            3.1134     2.8173     2.4013 C.3     
  13 C13            2.3090     5.5570     1.3517 C.3     
  14 C14            1.2265     6.3411     0.6070 C.3     
  15 C15            2.4953     6.1478     2.7507 C.3     
  16 C16            3.6269     5.6483     0.5799 C.3     
  17 C17            1.4752    -4.1568    -0.0322 C.3     
  18 C18            0.3364    -5.1786    -0.0260 C.3     
  19 C19           -1.1697    -0.8833     0.0085 C.3     
  20 C20           -1.5911    -1.1821    -1.4317 C.3     
  21 N21           -2.7629    -2.0613    -1.4252 N.am    
  22 O22           -4.3897    -3.2679    -2.5834 O.3     
  23 C23           -4.9290    -3.6570    -3.8742 C.3     
  24 C24           -3.8578    -4.4056    -4.6698 C.3     
  25 C25           -6.1404    -4.5683    -3.6670 C.3     
  26 C26           -5.3571    -2.4071    -4.6458 C.3     
  27 C27           -3.3128    -2.4599    -2.5894 C.2     
  28 O28           -2.8366    -2.0900    -3.6443 O.2     
  29 H29            3.1632     0.7774    -0.0237 H       
  30 H30           -0.1098     2.6164     2.5181 H       
  31 H31            0.3234     4.0816     3.4311 H       
  32 H32           -0.5805     4.2194     1.9040 H       
  33 H33            4.0523     2.8823     1.8515 H       
  34 H34            3.2462     3.2381     3.3980 H       
  35 H35            2.8130     1.7728     2.4850 H       
  36 H36            0.2876     6.2761     1.1569 H       
  37 H37            1.5270     7.3855     0.5234 H       
  38 H38            1.0938     5.9203    -0.3896 H       
  39 H39            3.2665     5.5892     3.2812 H       
  40 H40            2.7958     7.1922     2.6670 H       
  41 H41            1.5564     6.0827     3.3005 H       
  42 H42            3.4941     5.2275    -0.4168 H       
  43 H43            3.9274     6.6927     0.4962 H       
  44 H44            4.3980     5.0898     1.1104 H       
  45 H45            2.0801    -4.2924    -0.9287 H       
  46 H46            2.0974    -4.3009     0.8511 H       
  47 H47           -0.2685    -5.0430     0.8706 H       
  48 H48           -0.2858    -5.0345    -0.9093 H       
  49 H49            0.7522    -6.1861    -0.0348 H       
  50 H50           -0.9215    -1.8158     0.5154 H       
  51 H51           -1.9897    -0.3920     0.5324 H       
  52 H52           -1.8393    -0.2496    -1.9385 H       
  53 H53           -0.7712    -1.6733    -1.9556 H       
  54 H54           -3.1430    -2.3566    -0.5831 H       
  55 H55           -3.5528    -5.2960    -4.1201 H       
  56 H56           -4.2626    -4.6977    -5.6388 H       
  57 H57           -2.9948    -3.7564    -4.8174 H       
  58 H58           -6.9036    -4.0350    -3.1002 H       
  59 H59           -6.5453    -4.8604    -4.6360 H       
  60 H60           -5.8354    -5.4588    -3.1173 H       
  61 H61           -4.4941    -1.7579    -4.7934 H       
  62 H62           -5.7619    -2.6992    -5.6148 H       
  63 H63           -6.1203    -1.8738    -4.0790 H       
@<TRIPOS>BOND
   1    1    2 1
   2    1    5 2
   3    2    3 1
   4    2   19 1
   5    3    4 2
   6    3    6 1
   7    4    5 1
   8    4   29 1
   9    5    9 1
  10    6    7 2
  11    6    8 1
  12    8   17 1
  13    9   10 1
  14   10   11 1
  15   10   12 1
  16   10   13 1
  17   11   30 1
  18   11   31 1
  19   11   32 1
  20   12   33 1
  21   12   34 1
  22   12   35 1
  23   13   14 1
  24   13   16 1
  25   13   15 1
  26   14   36 1
  27   14   37 1
  28   14   38 1
  29   15   39 1
  30   15   40 1
  31   15   41 1
  32   16   42 1
  33   16   43 1
  34   16   44 1
  35   17   18 1
  36   17   45 1
  37   17   46 1
  38   18   47 1
  39   18   48 1
  40   18   49 1
  41   19   20 1
  42   19   50 1
  43   19   51 1
  44   20   21 1
  45   20   52 1
  46   20   53 1
  47   21   27 am
  48   21   54 1
  49   22   23 1
  50   22   27 1
  51   23   24 1
  52   23   25 1
  53   23   26 1
  54   24   55 1
  55   24   56 1
  56   24   57 1
  57   25   58 1
  58   25   59 1
  59   25   60 1
  60   26   61 1
  61   26   62 1
  62   26   63 1
  63   27   28 2

#	End of record

