#	Name: ASD01913254
#	Creating user name:	WinNT
#	Creation time:	15. 06. 2019 20:01

#	Modifying user name:	WinNT
#	Modification time:	15. 06. 2019 20:01

#	Program:	/corina/corina34_cracker 3.40 0067  02.08.2006

@<TRIPOS>MOLECULE
ASD01913254
  43   46    0    0    0
SMALL
NO_CHARGES


@<TRIPOS>ATOM
   1 C1             0.1563     1.3606     1.5237 C.ar    
   2 C2             0.1729    -0.0219     1.4959 C.ar    
   3 N3             1.2837    -0.6806     1.2366 N.ar    
   4 C4             2.4273    -0.0481     0.9921 C.ar    
   5 C5             2.4814     1.3483     1.0044 C.ar    
   6 C6             1.3282     2.0624     1.2741 C.ar    
   7 C7             3.6121    -0.8030     0.7147 C.1     
   8 C8             4.5834    -1.4219     0.4872 C.1     
   9 C9             5.7682    -2.1769     0.2098 C.ar    
  10 C10            6.9744    -1.5187    -0.0483 C.ar    
  11 C11            8.1171    -2.2458    -0.3159 C.ar    
  12 C12            8.0776    -3.6259    -0.3307 C.ar    
  13 C13            6.8792    -4.2971    -0.0751 C.ar    
  14 C14            5.7233    -3.5713     0.2018 C.ar    
  15 C15            6.8397    -5.7751    -0.0921 C.2     
  16 N16            7.9835    -6.4785    -0.2082 N.am    
  17 O17            5.7757    -6.3557    -0.0015 O.2     
  18 C18            9.3252    -5.9329    -0.4363 C.3     
  19 C19           10.2892    -7.0923    -0.4961 C.ar    
  20 C20            9.5829    -8.2644    -0.3165 C.ar    
  21 C21            8.1255    -7.9358    -0.1240 C.3     
  22 N22           11.5983    -7.1224    -0.6809 N.ar    
  23 C23           12.2728    -8.2538    -0.7012 C.ar    
  24 C24           11.6298    -9.4651    -0.5285 C.ar    
  25 C25           10.2578    -9.4759    -0.3311 C.ar    
  26 C26            7.0272    -0.0127    -0.0348 C.3     
  27 F27            8.3301     0.4108    -0.3183 F       
  28 F28            6.1516     0.4933    -1.0014 F       
  29 F29            6.6490     0.4559     1.2280 F       
  30 H30           -0.7613     1.8901     1.7334 H       
  31 H31           -0.7377    -0.5693     1.6898 H       
  32 H32            3.4104     1.8623     0.8065 H       
  33 H33            1.3390     3.1422     1.2905 H       
  34 H34            9.0463    -1.7326    -0.5149 H       
  35 H35            8.9754    -4.1881    -0.5408 H       
  36 H36            4.7944    -4.0854     0.4001 H       
  37 H37            9.3462    -5.3863    -1.3791 H       
  38 H38            9.5977    -5.2679     0.3831 H       
  39 H39            7.7924    -8.2903     0.8514 H       
  40 H40            7.5339    -8.4045    -0.9105 H       
  41 H41           13.3416    -8.2347    -0.8551 H       
  42 H42           12.1880   -10.3895    -0.5472 H       
  43 H43            9.7267   -10.4060    -0.1928 H       
@<TRIPOS>BOND
   1    1    2 ar
   2    1    6 ar
   3    1   30 1
   4    2    3 ar
   5    2   31 1
   6    3    4 ar
   7    4    5 ar
   8    4    7 1
   9    5    6 ar
  10    5   32 1
  11    6   33 1
  12    7    8 3
  13    8    9 1
  14    9   10 ar
  15    9   14 ar
  16   10   11 ar
  17   10   26 1
  18   11   12 ar
  19   11   34 1
  20   12   13 ar
  21   12   35 1
  22   13   14 ar
  23   13   15 1
  24   14   36 1
  25   15   16 am
  26   15   17 2
  27   16   18 1
  28   16   21 1
  29   18   19 1
  30   18   37 1
  31   18   38 1
  32   19   20 ar
  33   19   22 ar
  34   20   21 1
  35   20   25 ar
  36   21   39 1
  37   21   40 1
  38   22   23 ar
  39   23   24 ar
  40   23   41 1
  41   24   25 ar
  42   24   42 1
  43   25   43 1
  44   26   27 1
  45   26   28 1
  46   26   29 1

#	End of record

