#	Name: ASD01841039
#	Creating user name:	WinNT
#	Creation time:	15. 06. 2019 19:38

#	Modifying user name:	WinNT
#	Modification time:	15. 06. 2019 19:38

#	Program:	/corina/corina34_cracker 3.40 0067  02.08.2006

@<TRIPOS>MOLECULE
ASD01841039
  41   43    0    0    0
SMALL
NO_CHARGES


@<TRIPOS>ATOM
   1 C1            -0.0184     1.5028     0.0103 C.2     
   2 C2             0.0021    -0.0041     0.0020 C.3     
   3 O3             1.0235     2.1234     0.0037 O.2     
   4 N4            -1.1946     2.1607     0.0195 N.am    
   5 S5            -2.6702     4.5308     0.0393 S.3     
   6 C6            -1.2134     3.5468     0.0271 C.2     
   7 N7            -0.1667     4.2960     0.0266 N.2     
   8 C8            -0.3470     5.6321     0.0351 C.ar    
   9 C9            -1.6950     5.9985     0.0433 C.ar    
  10 C10           -2.0612     7.3435     0.0520 C.ar    
  11 C11           -1.0965     8.3260     0.0521 C.ar    
  12 C12            0.2464     7.9801     0.0436 C.ar    
  13 C13            0.6281     6.6574     0.0356 C.ar    
  14 C14           -3.5193     7.7239     0.0608 C.3     
  15 O15            1.9486     6.3346     0.0282 O.3     
  16 C16            2.8811     7.4174     0.0292 C.3     
  17 C17            1.4513    -0.4944    -0.0145 C.3     
  18 C18            1.4717    -2.0012    -0.0227 C.ar    
  19 C19            1.4697    -2.6859    -1.2236 C.ar    
  20 C20            1.4884    -4.0681    -1.2312 C.ar    
  21 C21            1.5096    -4.7656    -0.0379 C.ar    
  22 C22            1.5126    -4.0809     1.1629 C.ar    
  23 C23            1.4982    -2.6987     1.1705 C.ar    
  24 H24           -0.4983    -0.3791     0.8948 H       
  25 H25           -0.5153    -0.3696    -0.8850 H       
  26 H26           -2.0280     1.6644     0.0207 H       
  27 H27           -1.3859     9.3665     0.0585 H       
  28 H28            0.9990     8.7547     0.0434 H       
  29 H29           -3.8661     7.8103     1.0906 H       
  30 H30           -3.6486     8.6794    -0.4475 H       
  31 H31           -4.0980     6.9571    -0.4543 H       
  32 H32            3.8969     7.0222     0.0228 H       
  33 H33            2.7249     8.0323    -0.8572 H       
  34 H34            2.7328     8.0238     0.9227 H       
  35 H35            1.9516    -0.1193    -0.9073 H       
  36 H36            1.9686    -0.1289     0.8726 H       
  37 H37            1.4531    -2.1409    -2.1559 H       
  38 H38            1.4860    -4.6030    -2.1694 H       
  39 H39            1.5235    -5.8455    -0.0439 H       
  40 H40            1.5288    -4.6259     2.0952 H       
  41 H41            1.5006    -2.1637     2.1087 H       
@<TRIPOS>BOND
   1    1    2 1
   2    1    3 2
   3    1    4 am
   4    2   17 1
   5    2   24 1
   6    2   25 1
   7    4    6 1
   8    4   26 1
   9    5    6 1
  10    5    9 1
  11    6    7 2
  12    7    8 1
  13    8    9 ar
  14    8   13 ar
  15    9   10 ar
  16   10   11 ar
  17   10   14 1
  18   11   12 ar
  19   11   27 1
  20   12   13 ar
  21   12   28 1
  22   13   15 1
  23   14   29 1
  24   14   30 1
  25   14   31 1
  26   15   16 1
  27   16   32 1
  28   16   33 1
  29   16   34 1
  30   17   18 1
  31   17   35 1
  32   17   36 1
  33   18   19 ar
  34   18   23 ar
  35   19   20 ar
  36   19   37 1
  37   20   21 ar
  38   20   38 1
  39   21   22 ar
  40   21   39 1
  41   22   23 ar
  42   22   40 1
  43   23   41 1

#	End of record

