#	Name: ASD01885384
#	Creating user name:	WinNT
#	Creation time:	15. 06. 2019 19:49

#	Modifying user name:	WinNT
#	Modification time:	15. 06. 2019 19:49

#	Program:	/corina/corina34_cracker 3.40 0067  02.08.2006

@<TRIPOS>MOLECULE
ASD01885384
  28   30    0    0    0
SMALL
NO_CHARGES


@<TRIPOS>ATOM
   1 C1            -0.0168     1.3904     0.0097 C.ar    
   2 C2             0.0021    -0.0041     0.0020 C.ar    
   3 N3            -1.1145    -0.7757     0.0185 N.2     
   4 C4            -2.1893    -0.5671    -0.6487 C.2     
   5 C5            -2.3478     0.6310    -1.5469 C.3     
   6 C6            -2.2770     1.8711    -0.6918 C.2     
   7 N7            -1.1813     2.1456     0.0184 N.am    
   8 C8             1.1907     2.0902     0.0019 C.ar    
   9 C9             2.3959     1.4180    -0.0178 C.ar    
  10 C10            2.4175     0.0309    -0.0307 C.ar    
  11 C11            1.2379    -0.6748    -0.0203 C.ar    
  12 F12            3.5554     2.1113    -0.0252 F       
  13 C13           -3.3011    -1.5277    -0.5337 C.ar    
  14 C14           -3.2011    -2.6599     0.2903 C.ar    
  15 C15           -4.2872    -3.5153     0.3457 C.ar    
  16 N16           -5.3701    -3.2536    -0.3619 N.ar    
  17 N17           -5.4696    -2.2216    -1.1169 N.ar    
  18 C18           -4.4976    -1.3401    -1.2383 C.ar    
  19 O19           -3.2252     2.6262    -0.6493 O.2     
  20 H20           -1.5456     0.6465    -2.2847 H       
  21 H21           -3.3125     0.5871    -2.0523 H       
  22 H22           -1.1999     2.9335     0.5838 H       
  23 H23            1.1819     3.1701     0.0111 H       
  24 H24            3.3610    -0.4944    -0.0484 H       
  25 H25            1.2603    -1.7545    -0.0302 H       
  26 H26           -2.3059    -2.8569     0.8615 H       
  27 H27           -4.2487    -4.3973     0.9678 H       
  28 H28           -4.6190    -0.4830    -1.8841 H       
@<TRIPOS>BOND
   1    1    2 ar
   2    1    8 ar
   3    1    7 1
   4    2    3 1
   5    2   11 ar
   6    3    4 2
   7    4    5 1
   8    4   13 1
   9    5    6 1
  10    5   20 1
  11    5   21 1
  12    6    7 am
  13    6   19 2
  14    7   22 1
  15    8    9 ar
  16    8   23 1
  17    9   10 ar
  18    9   12 1
  19   10   11 ar
  20   10   24 1
  21   11   25 1
  22   13   14 ar
  23   13   18 ar
  24   14   15 ar
  25   14   26 1
  26   15   16 ar
  27   15   27 1
  28   16   17 ar
  29   17   18 ar
  30   18   28 1

#	End of record

