#	Name: ASD01813087
#	Creating user name:	WinNT
#	Creation time:	15. 06. 2019 19:29

#	Modifying user name:	WinNT
#	Modification time:	15. 06. 2019 19:29

#	Program:	/corina/corina34_cracker 3.40 0067  02.08.2006

@<TRIPOS>MOLECULE
ASD01813087
  59   64    0    0    0
SMALL
NO_CHARGES


@<TRIPOS>ATOM
   1 C1             0.0269     1.3964    -0.4179 C.ar    
   2 C2             0.0732     0.0371    -0.6548 C.ar    
   3 C3             1.2914    -0.6241    -0.6995 C.ar    
   4 C4             2.4607     0.0715    -0.5084 C.ar    
   5 C5             2.4327     1.4486    -0.2678 C.ar    
   6 C6             1.1990     2.1122    -0.2231 C.ar    
   7 C7             3.9137    -0.3331    -0.4947 C.3     
   8 N8             4.6776     0.8925    -0.2345 N.am    
   9 C9             3.8184     1.9179    -0.1043 C.2     
  10 C10            6.1363     0.9833    -0.1329 C.3     
  11 C11            6.7185     1.2600    -1.4950 C.ar    
  12 O12            1.1515     3.4479     0.0091 O.3     
  13 O13            4.1399     3.0693     0.1174 O.2     
  14 C14            6.8971     2.5654    -1.9159 C.ar    
  15 C15            7.4304     2.8244    -3.1624 C.ar    
  16 C16            7.7888     1.7683    -3.9970 C.ar    
  17 C17            7.6067     0.4554    -3.5682 C.ar    
  18 C18            7.0775     0.2076    -2.3177 C.ar    
  19 C19            8.7546     1.1069    -6.2531 C.2     
  20 C20            8.3624     2.0408    -5.3391 C.2     
  21 C21            8.6006     3.3106    -5.9001 C.2     
  22 N22            9.1102     3.1390    -7.0911 N.2     
  23 N23            9.2167     1.7645    -7.3356 N.pl3   
  24 C24            9.7402     1.1474    -8.5567 C.3     
  25 C25           -0.1276     4.0779    -0.0868 C.3     
  26 C26           -0.7413     4.1789     1.2867 C.ar    
  27 C27           -1.3995     5.3242     1.7000 C.ar    
  28 C28           -0.6388     3.0962     2.1437 C.ar    
  29 C29           -1.1922     3.1529     3.4082 C.ar    
  30 C30           -1.8526     4.2945     3.8228 C.ar    
  31 C31           -1.9570     5.3772     2.9733 C.ar    
  32 O32           -1.5153     6.4130     0.8958 O.3     
  33 C33           -1.2832     6.2374    -0.5025 C.3     
  34 C34            0.0378     5.4785    -0.6818 C.3     
  35 H35           -0.9253     1.9051    -0.3885 H       
  36 H36           -0.8434    -0.5139    -0.8055 H       
  37 H37            1.3211    -1.6877    -0.8845 H       
  38 H38            4.0925    -1.0612     0.2965 H       
  39 H39            4.1952    -0.7521    -1.4609 H       
  40 H40            6.4034     1.7920     0.5475 H       
  41 H41            6.5333     0.0422     0.2476 H       
  42 H42            6.6186     3.3835    -1.2682 H       
  43 H43            7.5692     3.8441    -3.4902 H       
  44 H44            7.8830    -0.3670    -4.2114 H       
  45 H45            6.9397    -0.8098    -1.9826 H       
  46 H46            8.7077     0.0350    -6.1299 H       
  47 H47            8.3972     4.2606    -5.4284 H       
  48 H48            8.9253     0.9927    -9.2639 H       
  49 H49           10.4888     1.8023    -9.0027 H       
  50 H50           10.1962     0.1880    -8.3123 H       
  51 H51           -0.7765     3.4850    -0.7313 H       
  52 H52           -0.1241     2.2029     1.8219 H       
  53 H53           -1.1094     2.3055     4.0726 H       
  54 H54           -2.2867     4.3390     4.8107 H       
  55 H55           -2.4733     6.2684     3.2982 H       
  56 H56           -2.0992     5.6627    -0.9408 H       
  57 H57           -1.2164     7.2107    -0.9886 H       
  58 H58            0.8380     6.0060    -0.1627 H       
  59 H59            0.2760     5.4011    -1.7427 H       
@<TRIPOS>BOND
   1    1    2 ar
   2    1    6 ar
   3    1   35 1
   4    2    3 ar
   5    2   36 1
   6    3    4 ar
   7    3   37 1
   8    4    7 1
   9    4    5 ar
  10    5    6 ar
  11    5    9 1
  12    6   12 1
  13    7    8 1
  14    7   38 1
  15    7   39 1
  16    8    9 am
  17    8   10 1
  18    9   13 2
  19   10   11 1
  20   10   40 1
  21   10   41 1
  22   11   14 ar
  23   11   18 ar
  24   12   25 1
  25   14   15 ar
  26   14   42 1
  27   15   16 ar
  28   15   43 1
  29   16   17 ar
  30   16   20 1
  31   17   18 ar
  32   17   44 1
  33   18   45 1
  34   19   20 2
  35   19   23 1
  36   19   46 1
  37   20   21 1
  38   21   22 2
  39   21   47 1
  40   22   23 1
  41   23   24 1
  42   24   48 1
  43   24   49 1
  44   24   50 1
  45   25   26 1
  46   25   34 1
  47   25   51 1
  48   26   28 ar
  49   26   27 ar
  50   27   31 ar
  51   27   32 1
  52   28   29 ar
  53   28   52 1
  54   29   30 ar
  55   29   53 1
  56   30   31 ar
  57   30   54 1
  58   31   55 1
  59   32   33 1
  60   33   34 1
  61   33   56 1
  62   33   57 1
  63   34   58 1
  64   34   59 1

#	End of record

