#	Name: ASD00840157
#	Creating user name:	WinNT
#	Creation time:	15. 06. 2019 18:37

#	Modifying user name:	WinNT
#	Modification time:	15. 06. 2019 18:37

#	Program:	/corina/corina34_cracker 3.40 0067  02.08.2006

@<TRIPOS>MOLECULE
ASD00840157
  48   50    0    0    0
SMALL
NO_CHARGES


@<TRIPOS>ATOM
   1 C1            -0.0841    -0.2326    -1.3997 C.2     
   2 C2            -0.1461     0.2430     0.0289 C.3     
   3 C3            -0.4253     1.7237     0.0538 C.2     
   4 O4            -1.0513    -0.1227    -2.1155 O.2     
   5 O5             1.0473    -0.7731    -1.8787 O.3     
   6 O6            -0.9621     2.2532    -0.8903 O.2     
   7 O7            -0.0777     2.4543     1.1248 O.3     
   8 N8            -3.2257    -1.1286    -0.2577 N.am    
   9 C9            -2.6189    -0.0493     0.2642 C.2     
  10 C10           -1.2631    -0.4991     0.7655 C.3     
  11 C11           -1.2221    -1.9747     0.4409 C.ar    
  12 C12           -0.2709    -2.9504     0.6396 C.ar    
  13 C13           -0.5170    -4.2492     0.2283 C.ar    
  14 C14           -1.7217    -4.5613    -0.3825 C.ar    
  15 C15           -2.6760    -3.5828    -0.5825 C.ar    
  16 C16           -2.4332    -2.2743    -0.1699 C.ar    
  17 O17           -3.0720     1.0743     0.3221 O.2     
  18 F18           -1.9633    -5.8283    -0.7845 F       
  19 C19           -2.1391    -0.7449     3.1095 C.ar    
  20 C20           -1.1503    -0.2792     2.2521 C.ar    
  21 C21           -0.0601     0.3888     2.7813 C.ar    
  22 C22            0.0027     0.5683     4.1565 C.ar    
  23 C23           -1.0163     0.0788     4.9487 C.ar    
  24 N24           -2.0436    -0.5544     4.4147 N.ar    
  25 O25           -3.2158    -1.3965     2.6026 O.3     
  26 C26           -4.1978    -1.8508     3.5360 C.3     
  27 C27           -5.3280    -2.5568     2.7842 C.3     
  28 Cl28           0.6792    -5.4827     0.4760 Cl      
  29 C29            1.0348    -1.2092    -3.2636 C.3     
  30 C30           -0.3772     3.8744     1.0795 C.3     
  31 H31            0.8068     0.0447     0.5195 H       
  32 H32           -4.1140    -1.1141    -0.6471 H       
  33 H33            0.6664    -2.7026     1.1155 H       
  34 H34           -3.6123    -3.8326    -1.0593 H       
  35 H35            0.7241     0.7617     2.1392 H       
  36 H36            0.8400     1.0851     4.6018 H       
  37 H37           -0.9721     0.2155     6.0191 H       
  38 H38           -3.7378    -2.5468     4.2375 H       
  39 H39           -4.6018    -0.9983     4.0822 H       
  40 H40           -6.0770    -2.9033     3.4962 H       
  41 H41           -5.7880    -1.8607     2.0827 H       
  42 H42           -4.9240    -3.4092     2.2380 H       
  43 H43            2.0084    -1.6256    -3.5222 H       
  44 H44            0.2667    -1.9709    -3.3977 H       
  45 H45            0.8199    -0.3586    -3.9104 H       
  46 H46           -1.4520     4.0155     0.9649 H       
  47 H47           -0.0455     4.3454     2.0048 H       
  48 H48            0.1409     4.3282     0.2347 H       
@<TRIPOS>BOND
   1    1    2 1
   2    1    4 2
   3    1    5 1
   4    2    3 1
   5    2   10 1
   6    2   31 1
   7    3    6 2
   8    3    7 1
   9    5   29 1
  10    7   30 1
  11    8    9 am
  12    8   16 1
  13    8   32 1
  14    9   10 1
  15    9   17 2
  16   10   11 1
  17   10   20 1
  18   11   12 ar
  19   11   16 ar
  20   12   13 ar
  21   12   33 1
  22   13   14 ar
  23   13   28 1
  24   14   15 ar
  25   14   18 1
  26   15   16 ar
  27   15   34 1
  28   19   20 ar
  29   19   24 ar
  30   19   25 1
  31   20   21 ar
  32   21   22 ar
  33   21   35 1
  34   22   23 ar
  35   22   36 1
  36   23   24 ar
  37   23   37 1
  38   25   26 1
  39   26   27 1
  40   26   38 1
  41   26   39 1
  42   27   40 1
  43   27   41 1
  44   27   42 1
  45   29   43 1
  46   29   44 1
  47   29   45 1
  48   30   46 1
  49   30   47 1
  50   30   48 1

#	End of record

