#	Name: ASD01914908
#	Creating user name:	WinNT
#	Creation time:	15. 06. 2019 20:04

#	Modifying user name:	WinNT
#	Modification time:	15. 06. 2019 20:04

#	Program:	/corina/corina34_cracker 3.40 0067  02.08.2006

@<TRIPOS>MOLECULE
ASD01914908
  57   61    0    0    0
SMALL
NO_CHARGES


@<TRIPOS>ATOM
   1 C1            -0.0036     1.3306    -0.0210 C.2     
   2 N2             0.0142     0.0585     0.3181 N.2     
   3 C3             1.3076     1.7203    -0.3419 C.2     
   4 C4             2.1160     0.6330    -0.1828 C.2     
   5 N5             1.3324    -0.4057     0.2256 N.pl3   
   6 C6            -1.2044     2.2022    -0.0632 C.ar    
   7 C7            -2.4539     1.6877     0.2755 C.ar    
   8 C8            -3.5672     2.5026     0.2345 C.ar    
   9 C9            -3.4439     3.8277    -0.1425 C.ar    
  10 C10           -2.2057     4.3436    -0.4798 C.ar    
  11 C11           -1.0849     3.5392    -0.4362 C.ar    
  12 C12            3.5774     0.5887    -0.4118 C.ar    
  13 C13            4.1829     1.5215    -1.2540 C.ar    
  14 C14            5.5459     1.4749    -1.4635 C.ar    
  15 C15            6.3117     0.5059    -0.8403 C.ar    
  16 C16            5.7171    -0.4223    -0.0043 C.ar    
  17 C17            4.3559    -0.3824     0.2181 C.ar    
  18 C18            1.7890    -1.7669     0.5168 C.3     
  19 C19            2.0673    -1.8986     1.9920 C.2     
  20 N20            2.5014    -3.0718     2.4938 N.am    
  21 C21            2.7770    -3.2156     3.9297 C.3     
  22 C22            4.2007    -3.7527     4.1072 C.3     
  23 C23            4.3574    -5.0462     3.3044 C.3     
  24 C24            4.1320    -4.7569     1.8186 C.3     
  25 C25            2.7022    -4.2329     1.6161 C.3     
  26 C26            5.7465    -5.5956     3.5038 C.ar    
  27 N27            5.8918    -6.7970     4.0259 N.ar    
  28 O28            1.9007    -0.9490     2.7277 O.2     
  29 N29            6.7827    -4.8639     3.1465 N.ar    
  30 C30            8.0172    -5.3129     3.3058 C.ar    
  31 C31            8.2114    -6.5710     3.8569 C.ar    
  32 C32            7.0955    -7.3129     4.2157 C.ar    
  33 Cl33           9.8114    -7.2044     4.0855 Cl      
  34 H34            1.6197     2.7046    -0.6583 H       
  35 H35           -2.5514     0.6530     0.5693 H       
  36 H36           -4.5364     2.1047     0.4969 H       
  37 H37           -4.3177     4.4617    -0.1739 H       
  38 H38           -2.1150     5.3790    -0.7734 H       
  39 H39           -0.1185     3.9431    -0.6995 H       
  40 H40            3.5861     2.2783    -1.7413 H       
  41 H41            6.0159     2.1963    -2.1155 H       
  42 H42            7.3782     0.4735    -1.0075 H       
  43 H43            6.3202    -1.1768     0.4787 H       
  44 H44            3.8928    -1.1073     0.8712 H       
  45 H45            1.0160    -2.4790     0.2279 H       
  46 H46            2.7004    -1.9723    -0.0447 H       
  47 H47            2.6892    -2.2449     4.4177 H       
  48 H48            2.0655    -3.9140     4.3702 H       
  49 H49            4.9160    -3.0127     3.7482 H       
  50 H50            4.3844    -3.9548     5.1624 H       
  51 H51            3.6253    -5.7773     3.6472 H       
  52 H52            4.8480    -4.0075     1.4811 H       
  53 H53            4.2668    -5.6739     1.2449 H       
  54 H54            1.9869    -5.0159     1.8678 H       
  55 H55            2.5670    -3.9319     0.5773 H       
  56 H56            8.8620    -4.7084     3.0104 H       
  57 H57            7.2077    -8.2962     4.6479 H       
@<TRIPOS>BOND
   1    1    2 2
   2    1    3 1
   3    1    6 1
   4    2    5 1
   5    3    4 2
   6    3   34 1
   7    4    5 1
   8    4   12 1
   9    5   18 1
  10    6    7 ar
  11    6   11 ar
  12    7    8 ar
  13    7   35 1
  14    8    9 ar
  15    8   36 1
  16    9   10 ar
  17    9   37 1
  18   10   11 ar
  19   10   38 1
  20   11   39 1
  21   12   13 ar
  22   12   17 ar
  23   13   14 ar
  24   13   40 1
  25   14   15 ar
  26   14   41 1
  27   15   16 ar
  28   15   42 1
  29   16   17 ar
  30   16   43 1
  31   17   44 1
  32   18   19 1
  33   18   45 1
  34   18   46 1
  35   19   20 am
  36   19   28 2
  37   20   21 1
  38   20   25 1
  39   21   22 1
  40   21   47 1
  41   21   48 1
  42   22   23 1
  43   22   49 1
  44   22   50 1
  45   23   24 1
  46   23   26 1
  47   23   51 1
  48   24   25 1
  49   24   52 1
  50   24   53 1
  51   25   54 1
  52   25   55 1
  53   26   27 ar
  54   26   29 ar
  55   27   32 ar
  56   29   30 ar
  57   30   31 ar
  58   30   56 1
  59   31   32 ar
  60   31   33 1
  61   32   57 1

#	End of record

