#	Name: ASD02039337
#	Creating user name:	WinNT
#	Creation time:	15. 06. 2019 20:18

#	Modifying user name:	WinNT
#	Modification time:	15. 06. 2019 20:18

#	Program:	/corina/corina34_cracker 3.40 0067  02.08.2006

@<TRIPOS>MOLECULE
ASD02039337
  49   51    0    0    0
SMALL
NO_CHARGES


@<TRIPOS>ATOM
   1 C1            -0.1345     1.5595    -0.1872 C.ar    
   2 C2            -0.1559     0.1782    -0.0590 C.ar    
   3 C3            -1.3627    -0.4920    -0.1423 C.ar    
   4 C4            -2.5119     1.4849    -0.4578 C.ar    
   5 C5            -1.3325     2.2230    -0.3899 C.ar    
   6 C6            -3.8039     2.1809    -0.6746 C.ar    
   7 C7             1.1630     2.3212    -0.1015 C.3     
   8 N8             1.8164     2.3220    -1.4127 N.am    
   9 C9             1.4075     3.2892    -2.4343 C.3     
  10 C10            2.7935     1.4328    -1.6792 C.2     
  11 C11            3.1433     0.4028    -0.6857 C.2     
  12 C12            4.1488    -0.5129    -0.7932 C.2     
  13 N13            2.5275     0.1958     0.5064 N.2     
  14 C14            3.1089    -0.7981     1.1135 C.2     
  15 N15            4.1202    -1.2620     0.3341 N.pl3   
  16 O16            3.3866     1.4808    -2.7400 O.2     
  17 C17            5.0184    -2.3739     0.6555 C.3     
  18 C18           -4.9976     1.4569    -0.7455 C.ar    
  19 N19           -2.4879     0.1634    -0.3414 N.ar    
  20 C20            2.5762     4.2261    -2.7462 C.3     
  21 C21            0.9972     2.5447    -3.7064 C.3     
  22 C22           -3.8479     3.5672    -0.8051 C.ar    
  23 N23           -4.9947     4.1865    -0.9973 N.ar    
  24 C24           -6.1361     3.5300    -1.0739 C.ar    
  25 C25           -6.1764     2.1531    -0.9491 C.ar    
  26 C26           -7.4170     4.2926    -1.2949 C.3     
  27 F27           -7.1250     5.6456    -1.4983 F       
  28 F28           -8.0747     3.7833    -2.4197 F       
  29 F29           -8.2402     4.1568    -0.1720 F       
  30 H30            0.7612    -0.3684     0.1041 H       
  31 H31           -1.3828    -1.5673    -0.0433 H       
  32 H32           -1.3536     3.2986    -0.4845 H       
  33 H33            0.9621     3.3478     0.2049 H       
  34 H34            1.8163     1.8450     0.6297 H       
  35 H35            0.5631     3.8717    -2.0658 H       
  36 H36            4.8357    -0.6200    -1.6197 H       
  37 H37            2.8337    -1.1889     2.0820 H       
  38 H38            4.5915    -3.3050     0.2829 H       
  39 H39            5.9877    -2.2052     0.1863 H       
  40 H40            5.1441    -2.4386     1.7362 H       
  41 H41           -4.9999     0.3817    -0.6443 H       
  42 H42            3.4480     3.6372    -3.0312 H       
  43 H43            2.3014     4.8890    -3.5668 H       
  44 H44            2.8117     4.8198    -1.8629 H       
  45 H45            0.1124     1.9409    -3.5046 H       
  46 H46            0.7737     3.2653    -4.4930 H       
  47 H47            1.8132     1.8974    -4.0277 H       
  48 H48           -2.9338     4.1394    -0.7479 H       
  49 H49           -7.1171     1.6265    -1.0140 H       
@<TRIPOS>BOND
   1    1    2 ar
   2    1    7 1
   3    1    5 ar
   4    2    3 ar
   5    2   30 1
   6    3   19 ar
   7    3   31 1
   8    4    5 ar
   9    4    6 1
  10    4   19 ar
  11    5   32 1
  12    6   18 ar
  13    6   22 ar
  14    7    8 1
  15    7   33 1
  16    7   34 1
  17    8    9 1
  18    8   10 am
  19    9   21 1
  20    9   20 1
  21    9   35 1
  22   10   11 1
  23   10   16 2
  24   11   12 2
  25   11   13 1
  26   12   15 1
  27   12   36 1
  28   13   14 2
  29   14   15 1
  30   14   37 1
  31   15   17 1
  32   17   38 1
  33   17   39 1
  34   17   40 1
  35   18   25 ar
  36   18   41 1
  37   20   42 1
  38   20   43 1
  39   20   44 1
  40   21   45 1
  41   21   46 1
  42   21   47 1
  43   22   23 ar
  44   22   48 1
  45   23   24 ar
  46   24   25 ar
  47   24   26 1
  48   25   49 1
  49   26   27 1
  50   26   28 1
  51   26   29 1

#	End of record

