#	Name: ASD01940083
#	Creating user name:	WinNT
#	Creation time:	15. 06. 2019 20:11

#	Modifying user name:	WinNT
#	Modification time:	15. 06. 2019 20:11

#	Program:	/corina/corina34_cracker 3.40 0067  02.08.2006

@<TRIPOS>MOLECULE
ASD01940083
  45   47    0    0    0
SMALL
NO_CHARGES


@<TRIPOS>ATOM
   1 C1            -0.4775     1.6886     0.0248 C.3     
   2 C2            -0.5343     0.1607     0.0814 C.3     
   3 C3            -0.0807    -0.3158     1.4627 C.3     
   4 C4             1.3539     0.1510     1.7175 C.3     
   5 C5             1.4107     1.6789     1.6610 C.3     
   6 C6             0.9571     2.1553     0.2796 C.3     
   7 S7            -1.0152     2.2535    -1.6129 S.o2    
   8 O8            -0.1260     1.7866    -2.6182 O.2     
   9 O9            -2.4217     2.1076    -1.7537 O.2     
  10 N10           -0.7754     3.8918    -1.5843 N.am    
  11 C11            0.5255     4.4084    -1.5173 C.ar    
  12 C12            0.7813     5.5630    -0.7787 C.ar    
  13 C13            2.0719     6.0701    -0.7154 C.ar    
  14 C14            3.1013     5.4279    -1.3857 C.ar    
  15 C15            2.8447     4.2821    -2.1185 C.ar    
  16 C16            1.5616     3.7691    -2.1805 C.ar    
  17 N17           -0.2620     6.2103    -0.1025 N.pl3   
  18 C18           -0.0886     7.5174     0.3632 C.ar    
  19 C19           -0.1091     8.5843    -0.5298 C.ar    
  20 C20            0.0622     9.8749    -0.0652 C.ar    
  21 C21            0.2542    10.1052     1.2857 C.ar    
  22 C22            0.2753     9.0462     2.1749 C.ar    
  23 C23            0.0986     7.7541     1.7182 C.ar    
  24 I24            0.5141    12.0627     1.9856 I       
  25 F25           -0.2956     8.3592    -1.8488 F       
  26 F26            4.3574     5.9215    -1.3240 F       
  27 F27            2.3245     7.1889    -0.0014 F       
  28 H28           -1.1359     2.1051     0.7871 H       
  29 H29           -1.5563    -0.1719    -0.1002 H       
  30 H30            0.1241    -0.2559    -0.6809 H       
  31 H31           -0.7391     0.1008     2.2250 H       
  32 H32           -0.1212    -1.4043     1.5030 H       
  33 H33            1.6770    -0.1885     2.7016 H       
  34 H34            2.0123    -0.2656     0.9552 H       
  35 H35            0.7523     2.0954     2.4233 H       
  36 H36            2.4328     2.0114     1.8425 H       
  37 H37            1.6156     1.7388    -0.4827 H       
  38 H38            0.9976     3.2438     0.2394 H       
  39 H39           -1.5354     4.4938    -1.6139 H       
  40 H40            3.6492     3.7850    -2.6400 H       
  41 H41            1.3661     2.8721    -2.7493 H       
  42 H42           -1.1043     5.7515     0.0425 H       
  43 H43            0.0466    10.7040    -0.7571 H       
  44 H44            0.4261     9.2298     3.2284 H       
  45 H45            0.1108     6.9285     2.4144 H       
@<TRIPOS>BOND
   1    1    2 1
   2    1    6 1
   3    1    7 1
   4    1   28 1
   5    2    3 1
   6    2   29 1
   7    2   30 1
   8    3    4 1
   9    3   31 1
  10    3   32 1
  11    4    5 1
  12    4   33 1
  13    4   34 1
  14    5    6 1
  15    5   35 1
  16    5   36 1
  17    6   37 1
  18    6   38 1
  19    7    8 2
  20    7    9 2
  21    7   10 am
  22   10   11 1
  23   10   39 1
  24   11   12 ar
  25   11   16 ar
  26   12   13 ar
  27   12   17 1
  28   13   14 ar
  29   13   27 1
  30   14   15 ar
  31   14   26 1
  32   15   16 ar
  33   15   40 1
  34   16   41 1
  35   17   18 1
  36   17   42 1
  37   18   19 ar
  38   18   23 ar
  39   19   20 ar
  40   19   25 1
  41   20   21 ar
  42   20   43 1
  43   21   22 ar
  44   21   24 1
  45   22   23 ar
  46   22   44 1
  47   23   45 1

#	End of record

