#	Name: ASD01914764
#	Creating user name:	WinNT
#	Creation time:	15. 06. 2019 20:04

#	Modifying user name:	WinNT
#	Modification time:	15. 06. 2019 20:04

#	Program:	/corina/corina34_cracker 3.40 0067  02.08.2006

@<TRIPOS>MOLECULE
ASD01914764
  64   68    0    0    0
SMALL
NO_CHARGES


@<TRIPOS>ATOM
   1 N1             0.0268     1.3905    -0.1029 N.2     
   2 C2            -0.0386     0.0588     0.0787 C.2     
   3 C3             1.2323    -0.4203     0.1481 C.2     
   4 N4             2.0697     0.6511     0.0044 N.pl3   
   5 C5             1.2866     1.7584    -0.1492 C.2     
   6 C6            -1.2805    -0.7464     0.1851 C.ar    
   7 C7            -1.2083    -2.1072     0.4776 C.ar    
   8 C8            -2.5225    -0.1431    -0.0014 C.ar    
   9 C9            -3.6749    -0.8956     0.0990 C.ar    
  10 C10           -3.5982    -2.2487     0.3851 C.ar    
  11 C11           -2.3655    -2.8518     0.5761 C.ar    
  12 F12           -4.7290    -2.9816     0.4829 F       
  13 C13            1.7753     3.1416    -0.3365 C.ar    
  14 C14            3.0838     3.4756     0.0156 C.ar    
  15 C15            3.5345     4.7670    -0.1610 C.ar    
  16 C16            2.6904     5.7323    -0.6867 C.ar    
  17 C17            1.3901     5.4058    -1.0380 C.ar    
  18 C18            0.9314     4.1159    -0.8712 C.ar    
  19 C19            3.5342     0.6170     0.0142 C.3     
  20 C20            4.0328     0.8496     1.4171 C.2     
  21 O21            3.2426     1.0265     2.3200 O.2     
  22 N22            5.3569     0.8610     1.6685 N.am    
  23 C23            5.8648     1.0862     3.0304 C.3     
  24 C24            6.3321     0.6425     0.5894 C.3     
  25 C25            7.3076    -0.4543     1.0295 C.3     
  26 N26            7.8897    -0.0946     2.3294 N.3     
  27 C27            6.8596    -0.0290     3.3695 C.3     
  28 C28            8.8991    -0.9828     2.6832 C.ar    
  29 N29            8.8292    -1.6291     3.8379 N.ar    
  30 C30            9.9675    -1.1883     1.8204 C.ar    
  31 C31           10.9687    -2.0794     2.1872 C.ar    
  32 C32           10.8574    -2.7336     3.4137 C.ar    
  33 C33            9.7641    -2.4818     4.2147 C.ar    
  34 F34            3.1365     6.9961    -0.8569 F       
  35 C35           -5.0188    -0.2442    -0.1026 C.3     
  36 O36           12.0292    -2.3079     1.3712 O.3     
  37 C37           13.0109    -3.2399     1.8288 C.3     
  38 H38            1.5245    -1.4503     0.2899 H       
  39 H39           -0.2478    -2.5781     0.6266 H       
  40 H40           -2.5832     0.9120    -0.2239 H       
  41 H41           -2.3102    -3.9071     0.7990 H       
  42 H42            3.7421     2.7242     0.4261 H       
  43 H43            4.5469     5.0265     0.1112 H       
  44 H44            0.7363     6.1618    -1.4473 H       
  45 H45           -0.0820     3.8625    -1.1456 H       
  46 H46            3.8773    -0.3564    -0.3367 H       
  47 H47            3.9202     1.3966    -0.6425 H       
  48 H48            6.3672     2.0523     3.0787 H       
  49 H49            5.0362     1.0654     3.7383 H       
  50 H50            5.8123     0.3286    -0.3158 H       
  51 H51            6.8802     1.5652     0.3989 H       
  52 H52            6.7743    -1.4007     1.1192 H       
  53 H53            8.1021    -0.5526     0.2898 H       
  54 H54            7.3269     0.1812     4.3315 H       
  55 H55            6.3333    -0.9821     3.4208 H       
  56 H56           10.0195    -0.6635     0.8779 H       
  57 H57           11.6169    -3.4329     3.7304 H       
  58 H58            9.6734    -2.9856     5.1656 H       
  59 H59           -5.2937    -0.2965    -1.1560 H       
  60 H60           -5.7679    -0.7642     0.4946 H       
  61 H61           -4.9670     0.7993     0.2080 H       
  62 H62           13.8019    -3.3295     1.0841 H       
  63 H63           13.4354    -2.8881     2.7691 H       
  64 H64           12.5445    -4.2130     1.9823 H       
@<TRIPOS>BOND
   1    1    2 1
   2    1    5 2
   3    2    3 2
   4    2    6 1
   5    3    4 1
   6    3   38 1
   7    4    5 1
   8    4   19 1
   9    5   13 1
  10    6    7 ar
  11    6    8 ar
  12    7   11 ar
  13    7   39 1
  14    8    9 ar
  15    8   40 1
  16    9   10 ar
  17    9   35 1
  18   10   11 ar
  19   10   12 1
  20   11   41 1
  21   13   14 ar
  22   13   18 ar
  23   14   15 ar
  24   14   42 1
  25   15   16 ar
  26   15   43 1
  27   16   17 ar
  28   16   34 1
  29   17   18 ar
  30   17   44 1
  31   18   45 1
  32   19   20 1
  33   19   46 1
  34   19   47 1
  35   20   21 2
  36   20   22 am
  37   22   23 1
  38   22   24 1
  39   23   27 1
  40   23   48 1
  41   23   49 1
  42   24   25 1
  43   24   50 1
  44   24   51 1
  45   25   26 1
  46   25   52 1
  47   25   53 1
  48   26   27 1
  49   26   28 1
  50   27   54 1
  51   27   55 1
  52   28   29 ar
  53   28   30 ar
  54   29   33 ar
  55   30   31 ar
  56   30   56 1
  57   31   32 ar
  58   31   36 1
  59   32   33 ar
  60   32   57 1
  61   33   58 1
  62   35   59 1
  63   35   60 1
  64   35   61 1
  65   36   37 1
  66   37   62 1
  67   37   63 1
  68   37   64 1

#	End of record

