#	Name: ASD03731440
#	Creating user name:	WinNT
#	Creation time:	15. 06. 2019 20:45

#	Modifying user name:	WinNT
#	Modification time:	15. 06. 2019 20:45

#	Program:	/corina/corina34_cracker 3.40 0067  02.08.2006

@<TRIPOS>MOLECULE
ASD03731440
  58   63    0    0    0
SMALL
NO_CHARGES


@<TRIPOS>ATOM
   1 C1            -0.0188     1.5345     0.0105 C.3     
   2 C2             0.0021    -0.0041     0.0020 C.3     
   3 C3             1.4862    -0.4246    -0.0144 C.3     
   4 C4             2.2325     0.7924     0.5864 C.3     
   5 C5             1.4534     1.9953    -0.0011 C.3     
   6 C6            -0.7300     2.0479    -1.2149 C.2     
   7 O7            -1.1818     1.2671    -2.0256 O.2     
   8 N8            -0.8641     3.3747    -1.4100 N.am    
   9 C9            -1.5555     3.8738    -2.6013 C.3     
  10 C10           -1.5688     5.4036    -2.5799 C.3     
  11 C11           -2.2909     5.9248    -3.8240 C.3     
  12 O12            1.8785    10.8856    -0.7099 O.3     
  13 C13            2.2771    12.2468    -0.4621 C.3     
  14 O14            2.1287    12.8856    -1.7439 O.3     
  15 C15            1.1609    12.1766    -2.3962 C.ar    
  16 C16            1.0082    10.9465    -1.7605 C.ar    
  17 C17            0.3845    12.4867    -3.4982 C.ar    
  18 C18           -0.5506    11.5760    -3.9808 C.ar    
  19 C19           -0.6882    10.3472    -3.3424 C.ar    
  20 C20            0.0801    10.0374    -2.2396 C.ar    
  21 O21           -1.4169    11.6883    -5.0283 O.3     
  22 C22           -1.7399     9.5844    -4.1026 C.3     
  23 C23           -1.8726    10.3762    -5.4106 C.3     
  24 N24           -2.3036     7.3896    -3.8035 N.am    
  25 C25           -1.3403     8.1582    -4.3496 C.2     
  26 C26           -3.0405     9.5100    -3.3591 C.ar    
  27 C27           -3.9036    10.4570    -2.8548 C.ar    
  28 C28           -5.0575    10.0644    -2.2002 C.ar    
  29 C29           -5.3414     8.7188    -2.0531 C.ar    
  30 C30           -4.4795     7.7664    -2.5556 C.ar    
  31 C31           -3.3159     8.1525    -3.2163 C.ar    
  32 O32           -0.3459     7.7732    -4.9276 O.2     
  33 H33           -0.5162     1.8962     0.9104 H       
  34 H34           -0.4852    -0.3890     0.8978 H       
  35 H35           -0.5022    -0.3794    -0.8884 H       
  36 H36            1.6390    -1.3091     0.6040 H       
  37 H37            1.8189    -0.6099    -1.0357 H       
  38 H38            2.1693     0.7856     1.6746 H       
  39 H39            3.2720     0.8083     0.2589 H       
  40 H40            1.7808     2.2008    -1.0203 H       
  41 H41            1.5822     2.8767     0.6270 H       
  42 H42           -0.5027     3.9992    -0.7617 H       
  43 H43           -1.0360     3.5274    -3.4947 H       
  44 H44           -2.5800     3.5016    -2.6094 H       
  45 H45           -2.0883     5.7499    -1.6864 H       
  46 H46           -0.5443     5.7757    -2.5717 H       
  47 H47           -1.7714     5.5784    -4.7174 H       
  48 H48           -3.3154     5.5526    -3.8321 H       
  49 H49            1.6209    12.7099     0.2748 H       
  50 H50            3.3149    12.2878    -0.1316 H       
  51 H51            0.5049    13.4420    -3.9875 H       
  52 H52           -0.0422     9.0832    -1.7488 H       
  53 H53           -2.9111    10.4080    -5.7403 H       
  54 H54           -1.2322     9.9544    -6.1852 H       
  55 H55           -3.6798    11.5072    -2.9707 H       
  56 H56           -5.7352    10.8068    -1.8053 H       
  57 H57           -6.2421     8.4123    -1.5419 H       
  58 H58           -4.7078     6.7176    -2.4363 H       
@<TRIPOS>BOND
   1    1    2 1
   2    1    5 1
   3    1    6 1
   4    1   33 1
   5    2    3 1
   6    2   34 1
   7    2   35 1
   8    3    4 1
   9    3   36 1
  10    3   37 1
  11    4    5 1
  12    4   38 1
  13    4   39 1
  14    5   40 1
  15    5   41 1
  16    6    7 2
  17    6    8 am
  18    8    9 1
  19    8   42 1
  20    9   10 1
  21    9   43 1
  22    9   44 1
  23   10   11 1
  24   10   45 1
  25   10   46 1
  26   11   24 1
  27   11   47 1
  28   11   48 1
  29   12   13 1
  30   12   16 1
  31   13   14 1
  32   13   49 1
  33   13   50 1
  34   14   15 1
  35   15   16 ar
  36   15   17 ar
  37   16   20 ar
  38   17   18 ar
  39   17   51 1
  40   18   19 ar
  41   18   21 1
  42   19   20 ar
  43   19   22 1
  44   20   52 1
  45   21   23 1
  46   22   23 1
  47   22   25 1
  48   22   26 1
  49   23   53 1
  50   23   54 1
  51   24   25 am
  52   24   31 1
  53   25   32 2
  54   26   27 ar
  55   26   31 ar
  56   27   28 ar
  57   27   55 1
  58   28   29 ar
  59   28   56 1
  60   29   30 ar
  61   29   57 1
  62   30   31 ar
  63   30   58 1

#	End of record

