#	Name: ASD01001111
#	Creating user name:	WinNT
#	Creation time:	15. 06. 2019 18:55

#	Modifying user name:	WinNT
#	Modification time:	15. 06. 2019 18:55

#	Program:	/corina/corina34_cracker 3.40 0067  02.08.2006

@<TRIPOS>MOLECULE
ASD01001111
  46   48    0    0    0
SMALL
NO_CHARGES


@<TRIPOS>ATOM
   1 C1            -0.3898     0.9504     0.6723 C.2     
   2 C2            -0.2820    -0.3620     0.4353 C.2     
   3 C3            -1.5728    -0.9967     0.2402 C.2     
   4 C4            -2.6241    -0.1282     0.3386 C.2     
   5 S5            -2.0729     1.4508     0.6571 S.3     
   6 N6            -3.9551    -0.4832     0.1931 N.am    
   7 C7            -4.9186     0.4521     0.3092 C.2     
   8 C8            -1.7333    -2.4275    -0.0355 C.2     
   9 O9            -1.7634    -3.2248     0.8837 O.2     
  10 N10           -1.8475    -2.8601    -1.3068 N.am    
  11 C11           -1.8979    -4.2966    -1.5900 C.3     
  12 C12           -1.9212    -1.8939    -2.4055 C.3     
  13 C13           -3.3527    -4.7699    -1.5686 C.3     
  14 C14           -0.5207    -1.6640    -2.9773 C.3     
  15 C15           -6.3264     0.0765     0.1552 C.2     
  16 O16           -4.6192     1.6086     0.5418 O.2     
  17 C17           -7.3898     0.9302     0.2501 C.2     
  18 C18           -8.6025     0.3108     0.0621 C.2     
  19 C19           -8.5372    -1.0040    -0.1786 C.2     
  20 S20           -6.9184    -1.5430    -0.1887 S.3     
  21 C21            0.7880     1.8750     0.9141 C.3     
  22 C22            1.0469    -1.0985     0.3787 C.3     
  23 C23            2.0173     1.0277     1.2532 C.3     
  24 C24            2.1703    -0.0746     0.2011 C.3     
  25 H25           -4.1937    -1.4049     0.0077 H       
  26 H26           -1.4678    -4.4884    -2.5730 H       
  27 H27           -1.3291    -4.8364    -0.8329 H       
  28 H28           -2.5737    -2.2821    -3.1876 H       
  29 H29           -2.3211    -0.9506    -2.0336 H       
  30 H30           -3.3902    -5.8387    -1.7793 H       
  31 H31           -3.7828    -4.5780    -0.5856 H       
  32 H32           -3.9215    -4.2301    -2.3257 H       
  33 H33           -0.5878    -1.0217    -3.8554 H       
  34 H34            0.1052    -1.1854    -2.2241 H       
  35 H35           -0.0820    -2.6210    -3.2597 H       
  36 H36           -7.2874     1.9860     0.4530 H       
  37 H37           -9.5395     0.8461     0.1057 H       
  38 H38           -9.3946    -1.6386    -0.3475 H       
  39 H39            0.9838     2.4600     0.0155 H       
  40 H40            0.5636     2.5428     1.7458 H       
  41 H41            1.1987    -1.6502     1.3064 H       
  42 H42            1.0460    -1.7898    -0.4640 H       
  43 H43            2.9063     1.6584     1.2525 H       
  44 H44            1.8893     0.5769     2.2374 H       
  45 H45            3.1348    -0.5666     0.3266 H       
  46 H46            2.1104     0.3626    -0.7956 H       
@<TRIPOS>BOND
   1    1    2 2
   2    1   21 1
   3    1    5 1
   4    2    3 1
   5    2   22 1
   6    3    4 2
   7    3    8 1
   8    4    5 1
   9    4    6 1
  10    6    7 am
  11    6   25 1
  12    7   15 1
  13    7   16 2
  14    8    9 2
  15    8   10 am
  16   10   11 1
  17   10   12 1
  18   11   13 1
  19   11   26 1
  20   11   27 1
  21   12   14 1
  22   12   28 1
  23   12   29 1
  24   13   30 1
  25   13   31 1
  26   13   32 1
  27   14   33 1
  28   14   34 1
  29   14   35 1
  30   15   17 2
  31   15   20 1
  32   17   18 1
  33   17   36 1
  34   18   19 2
  35   18   37 1
  36   19   20 1
  37   19   38 1
  38   21   23 1
  39   21   39 1
  40   21   40 1
  41   22   24 1
  42   22   41 1
  43   22   42 1
  44   23   24 1
  45   23   43 1
  46   23   44 1
  47   24   45 1
  48   24   46 1

#	End of record

