#	Name: ASD00843034
#	Creating user name:	WinNT
#	Creation time:	15. 06. 2019 18:45

#	Modifying user name:	WinNT
#	Modification time:	15. 06. 2019 18:45

#	Program:	/corina/corina34_cracker 3.40 0067  02.08.2006

@<TRIPOS>MOLECULE
ASD00843034
  86   91    0    0    0
SMALL
NO_CHARGES


@<TRIPOS>ATOM
   1 F1            -0.1177    -3.1639     4.7131 F       
   2 N2            -0.0057     1.3211     0.0335 N.ar    
   3 C3             0.0085    -0.0012     0.0173 C.ar    
   4 C4             1.2114    -0.6959    -0.0024 C.ar    
   5 C5             2.3990     0.0142    -0.0048 C.ar    
   6 C6             2.3411     1.4012     0.0125 C.ar    
   7 C7             1.1101     2.0256     0.0316 C.ar    
   8 C8             1.2227    -2.2028    -0.0203 C.3     
   9 C9             0.4753    -2.7244    -1.2290 C.2     
  10 N10            2.5991    -2.7045    -0.0120 N.am    
  11 C11            3.4466    -2.3635    -1.0029 C.2     
  12 N12            4.7401    -2.7371    -0.9417 N.am    
  13 O13            3.0442    -1.7188    -1.9520 O.2     
  14 C14            5.6552    -2.4758    -2.0632 C.3     
  15 C15            6.9058    -1.7777    -1.5184 C.3     
  16 N16            7.4742    -2.5798    -0.4269 N.3     
  17 C17            6.5397    -2.6818     0.7020 C.3     
  18 C18            5.2755    -3.4114     0.2507 C.3     
  19 N19            8.7544    -2.0413     0.0035 N.3     
  20 C20            9.3230    -2.8438     1.0955 C.3     
  21 C21           10.7025    -2.2932     1.4647 C.3     
  22 N22           10.5744    -0.8842     1.8620 N.3     
  23 C23           10.0058    -0.0817     0.7700 C.3     
  24 C24            8.6263    -0.6323     0.4007 C.3     
  25 H25           10.0228    -0.7940     2.7020 H       
  26 O26            0.7561    -2.5231    -2.3917 O.2     
  27 N27           -0.5570    -3.4530    -0.7720 N.am    
  28 C28            0.4488    -2.7521     1.1561 C.ar    
  29 C29           -0.6013    -3.4894     0.6233 C.ar    
  30 C30            0.6137    -2.6412     2.5183 C.ar    
  31 C31           -0.2753    -3.2703     3.3755 C.ar    
  32 C32           -1.3265    -4.0084     2.8558 C.ar    
  33 C33           -1.4918    -4.1196     1.4895 C.ar    
  34 Cl34          -2.4411    -4.7973     3.9277 Cl      
  35 C35           -1.0280    -5.8366    -2.0646 C.ar    
  36 C36            0.1494    -5.9989    -2.7805 C.ar    
  37 C37           -1.7090    -6.9426    -1.5925 C.ar    
  38 C38           -1.2195    -8.2122    -1.8317 C.ar    
  39 C39           -0.0421    -8.3798    -2.5474 C.ar    
  40 C40            0.6426    -7.2720    -3.0222 C.ar    
  41 O41            0.4387    -9.6288    -2.7827 O.3     
  42 O42            0.8184    -4.9109    -3.2448 O.3     
  43 C43            2.0235    -5.1527    -3.9738 C.3     
  44 C44           -0.3188   -10.7240    -2.2642 C.3     
  45 O45           -1.1628    -0.6859     0.0204 O.3     
  46 C46           -2.3653     0.0859     0.0415 C.3     
  47 C47           -3.5737    -0.8525     0.0418 C.3     
  48 F48           -3.5487    -1.6455    -1.1104 F       
  49 F49           -3.5264    -1.6732     1.1738 F       
  50 S50           -1.6515    -4.2188    -1.7507 S.o2    
  51 O51           -2.8322    -4.3868    -0.9779 O.2     
  52 O52           -1.6277    -3.5314    -2.9941 O.2     
  53 H53            3.3493    -0.4988    -0.0196 H       
  54 H54            3.2495     1.9854     0.0115 H       
  55 H55            1.0596     3.1043     0.0448 H       
  56 H56            2.9004    -3.2822     0.7066 H       
  57 H57            5.9371    -3.4181    -2.5329 H       
  58 H58            5.1650    -1.8317    -2.7933 H       
  59 H59            7.6418    -1.6754    -2.3159 H       
  60 H60            6.6368    -0.7906    -1.1424 H       
  61 H61            7.0101    -3.2351     1.5147 H       
  62 H62            6.2757    -1.6821     1.0470 H       
  63 H63            4.5346    -3.3887     1.0498 H       
  64 H64            5.5181    -4.4445     0.0018 H       
  65 H65            8.6666    -2.7927     1.9642 H       
  66 H66            9.4197    -3.8804     0.7727 H       
  67 H67           11.1137    -2.8689     2.2939 H       
  68 H68           11.3668    -2.3694     0.6039 H       
  69 H69            9.9091     0.9549     1.0927 H       
  70 H70           10.6622    -0.1328    -0.0987 H       
  71 H71            8.2151    -0.0566    -0.4285 H       
  72 H72            7.9620    -0.5561     1.2616 H       
  73 H73            1.4348    -2.0650     2.9185 H       
  74 H74           -2.3134    -4.6966     1.0914 H       
  75 H75           -2.6253    -6.8143    -1.0355 H       
  76 H76           -1.7531    -9.0749    -1.4612 H       
  77 H77            1.5587    -7.4004    -3.5796 H       
  78 H78            2.7324    -5.6833    -3.3382 H       
  79 H79            1.8010    -5.7571    -4.8533 H       
  80 H80            2.4561    -4.2022    -4.2861 H       
  81 H81            0.1743   -11.6612    -2.5221 H       
  82 H82           -0.3885   -10.6365    -1.1800 H       
  83 H83           -1.3199   -10.7096    -2.6950 H       
  84 H84           -2.3848     0.7038     0.9392 H       
  85 H85           -2.4021     0.7253    -0.8405 H       
  86 H86           -4.4909    -0.2639     0.0579 H       
@<TRIPOS>BOND
   1    1   31 1
   2    2    3 ar
   3    2    7 ar
   4    3    4 ar
   5    3   45 1
   6    4    5 ar
   7    4    8 1
   8    5    6 ar
   9    5   53 1
  10    6    7 ar
  11    6   54 1
  12    7   55 1
  13    8    9 1
  14    8   10 1
  15    8   28 1
  16    9   26 2
  17    9   27 am
  18   10   11 am
  19   10   56 1
  20   11   12 am
  21   11   13 2
  22   12   14 1
  23   12   18 1
  24   14   15 1
  25   14   57 1
  26   14   58 1
  27   15   16 1
  28   15   59 1
  29   15   60 1
  30   16   17 1
  31   16   19 1
  32   17   18 1
  33   17   61 1
  34   17   62 1
  35   18   63 1
  36   18   64 1
  37   19   20 1
  38   19   24 1
  39   20   21 1
  40   20   65 1
  41   20   66 1
  42   21   22 1
  43   21   67 1
  44   21   68 1
  45   22   23 1
  46   22   25 1
  47   23   24 1
  48   23   69 1
  49   23   70 1
  50   24   71 1
  51   24   72 1
  52   27   50 am
  53   27   29 1
  54   28   29 ar
  55   28   30 ar
  56   29   33 ar
  57   30   31 ar
  58   30   73 1
  59   31   32 ar
  60   32   33 ar
  61   32   34 1
  62   33   74 1
  63   35   36 ar
  64   35   37 ar
  65   35   50 1
  66   36   42 1
  67   36   40 ar
  68   37   38 ar
  69   37   75 1
  70   38   39 ar
  71   38   76 1
  72   39   40 ar
  73   39   41 1
  74   40   77 1
  75   41   44 1
  76   42   43 1
  77   43   78 1
  78   43   79 1
  79   43   80 1
  80   44   81 1
  81   44   82 1
  82   44   83 1
  83   45   46 1
  84   46   47 1
  85   46   84 1
  86   46   85 1
  87   47   48 1
  88   47   49 1
  89   47   86 1
  90   50   51 2
  91   50   52 2

#	End of record

