#	Name: ASD03740016
#	Creating user name:	WinNT
#	Creation time:	15. 06. 2019 20:46

#	Modifying user name:	WinNT
#	Modification time:	15. 06. 2019 20:46

#	Program:	/corina/corina34_cracker 3.40 0067  02.08.2006

@<TRIPOS>MOLECULE
ASD03740016
  41   43    0    0    0
SMALL
NO_CHARGES


@<TRIPOS>ATOM
   1 C1            -0.0164     1.3556     0.0095 C.2     
   2 O2             0.0021    -0.0041     0.0020 O.3     
   3 C3            -1.1901    -0.6321     0.0100 C.2     
   4 C4            -1.2473    -2.1050     0.0027 C.ar    
   5 O5            -2.2181     0.0158     0.0233 O.2     
   6 C6            -1.2861    -2.8019    -1.2105 C.ar    
   7 C7            -1.3392    -4.1829    -1.2079 C.ar    
   8 C8            -1.3543    -4.8762    -0.0112 C.ar    
   9 C9            -1.3167    -4.1958     1.1924 C.ar    
  10 C10           -1.2572    -2.8151     1.2088 C.ar    
  11 C11            1.1087     2.1917     0.0032 C.2     
  12 C12            0.6699     3.4802     0.0139 C.2     
  13 N13           -0.6878     3.4505     0.0264 N.am    
  14 N14           -1.0897     2.1088     0.0181 N.2     
  15 N15            1.4677     4.6207     0.0122 N.pl3   
  16 S16           -1.6911     4.7680     0.0428 S.o2    
  17 O17           -2.9233     4.3271     0.5964 O.2     
  18 O18           -0.9348     5.8414     0.5861 O.2     
  19 C19           -2.0227     5.1920    -1.6349 C.ar    
  20 C20           -3.1058     4.6323    -2.2871 C.ar    
  21 C21           -3.3680     4.9631    -3.6025 C.ar    
  22 C22           -2.5434     5.8578    -4.2690 C.ar    
  23 C23           -1.4574     6.4181    -3.6124 C.ar    
  24 C24           -1.2028     6.0883    -2.2953 C.ar    
  25 O25           -2.7990     6.1845    -5.5632 O.3     
  26 C26           -1.9082     7.1121    -6.1862 C.3     
  27 F27           -1.2200    -2.1524     2.3855 F       
  28 F28           -1.2723    -2.1266    -2.3806 F       
  29 H29           -1.3692    -4.7223    -2.1431 H       
  30 H30           -1.3962    -5.9554    -0.0166 H       
  31 H31           -1.3296    -4.7452     2.1221 H       
  32 H32            2.1399     1.8708    -0.0075 H       
  33 H33            2.4340     4.5367     0.0024 H       
  34 H34            1.0574     5.4996     0.0208 H       
  35 H35           -3.7471     3.9355    -1.7678 H       
  36 H36           -4.2139     4.5253    -4.1116 H       
  37 H37           -0.8140     7.1149    -4.1292 H       
  38 H38           -0.3574     6.5242    -1.7836 H       
  39 H39           -1.9227     8.0541    -5.6379 H       
  40 H40           -0.8973     6.7044    -6.1812 H       
  41 H41           -2.2250     7.2853    -7.2146 H       
@<TRIPOS>BOND
   1    1    2 1
   2    1   11 1
   3    1   14 2
   4    2    3 1
   5    3    4 1
   6    3    5 2
   7    4    6 ar
   8    4   10 ar
   9    6    7 ar
  10    6   28 1
  11    7    8 ar
  12    7   29 1
  13    8    9 ar
  14    8   30 1
  15    9   10 ar
  16    9   31 1
  17   10   27 1
  18   11   12 2
  19   11   32 1
  20   12   13 1
  21   12   15 1
  22   13   14 1
  23   13   16 am
  24   15   33 1
  25   15   34 1
  26   16   17 2
  27   16   18 2
  28   16   19 1
  29   19   20 ar
  30   19   24 ar
  31   20   21 ar
  32   20   35 1
  33   21   22 ar
  34   21   36 1
  35   22   23 ar
  36   22   25 1
  37   23   24 ar
  38   23   37 1
  39   24   38 1
  40   25   26 1
  41   26   39 1
  42   26   40 1
  43   26   41 1

#	End of record

