#	Name: ASD01900904
#	Creating user name:	WinNT
#	Creation time:	15. 06. 2019 19:52

#	Modifying user name:	WinNT
#	Modification time:	15. 06. 2019 19:52

#	Program:	/corina/corina34_cracker 3.40 0067  02.08.2006

@<TRIPOS>MOLECULE
ASD01900904
  36   38    0    0    0
SMALL
NO_CHARGES


@<TRIPOS>ATOM
   1 C1            -0.0167     1.3777     0.0096 C.ar    
   2 C2             0.0021    -0.0041     0.0020 C.ar    
   3 C3            -1.1856    -0.7119     0.0095 C.ar    
   4 C4            -2.3923    -0.0380     0.0241 C.ar    
   5 C5            -2.4123     1.3442     0.0313 C.ar    
   6 C6            -1.2243     2.0529     0.0305 C.ar    
   7 Cl7           -1.2486     3.7887     0.0401 Cl      
   8 C8             1.2779     2.1490     0.0014 C.3     
   9 S9             1.7811     2.4677    -1.7121 S.o2    
  10 C10            3.2904     3.3653    -1.5674 C.2     
  11 N11            4.4784     2.8549    -1.5152 N.2     
  12 N12            5.4564     3.6440    -1.4110 N.2     
  13 C13            5.2009     4.9197    -1.3631 C.2     
  14 S14            3.4509     5.1204    -1.4756 S.3     
  15 N15            6.1375     5.9398    -1.2494 N.am    
  16 C16            7.4505     5.6443    -1.1782 C.2     
  17 O17            7.8153     4.4856    -1.2134 O.2     
  18 C18            8.4489     6.7316    -1.0571 C.ar    
  19 N19            8.0445     7.9953    -1.0191 N.ar    
  20 C20            8.8981     8.9900    -0.9118 C.ar    
  21 C21           10.2611     8.7529    -0.8343 C.ar    
  22 C22           10.7270     7.4477    -0.8703 C.ar    
  23 C23            9.8045     6.4192    -0.9781 C.ar    
  24 O24            2.1537     1.2569    -2.3557 O.2     
  25 O25            0.8876     3.3822    -2.3322 O.2     
  26 H26            0.9446    -0.5312    -0.0101 H       
  27 H27           -1.1705    -1.7918     0.0036 H       
  28 H28           -3.3197    -0.5914     0.0296 H       
  29 H29           -3.3553     1.8707     0.0420 H       
  30 H30            1.1395     3.0968     0.5217 H       
  31 H31            2.0505     1.5677     0.5048 H       
  32 H32            5.8464     6.8647    -1.2213 H       
  33 H33            8.5318    10.0056    -0.8840 H       
  34 H34           10.9538     9.5769    -0.7471 H       
  35 H35           11.7847     7.2370    -0.8116 H       
  36 H36           10.1322     5.3906    -1.0086 H       
@<TRIPOS>BOND
   1    1    2 ar
   2    1    8 1
   3    1    6 ar
   4    2    3 ar
   5    2   26 1
   6    3    4 ar
   7    3   27 1
   8    4    5 ar
   9    4   28 1
  10    5    6 ar
  11    5   29 1
  12    6    7 1
  13    8    9 1
  14    8   30 1
  15    8   31 1
  16    9   10 1
  17    9   24 2
  18    9   25 2
  19   10   11 2
  20   10   14 1
  21   11   12 1
  22   12   13 2
  23   13   14 1
  24   13   15 1
  25   15   16 am
  26   15   32 1
  27   16   17 2
  28   16   18 1
  29   18   19 ar
  30   18   23 ar
  31   19   20 ar
  32   20   21 ar
  33   20   33 1
  34   21   22 ar
  35   21   34 1
  36   22   23 ar
  37   22   35 1
  38   23   36 1

#	End of record

