#	Name: ASD01913987
#	Creating user name:	WinNT
#	Creation time:	15. 06. 2019 20:02

#	Modifying user name:	WinNT
#	Modification time:	15. 06. 2019 20:02

#	Program:	/corina/corina34_cracker 3.40 0067  02.08.2006

@<TRIPOS>MOLECULE
ASD01913987
  37   40    0    0    0
SMALL
NO_CHARGES


@<TRIPOS>ATOM
   1 N1            -0.0146     1.2835     0.0164 N.2     
   2 N2             0.0032    -0.0043     0.0110 N.pl3   
   3 C3             1.2865    -0.4466    -0.0119 C.2     
   4 C4             2.0869     0.6636    -0.0165 C.2     
   5 C5             1.2171     1.7639     0.0003 C.2     
   6 C6             3.5892     0.6390    -0.0326 C.3     
   7 C7             1.7873    -1.8343    -0.0332 C.ar    
   8 C8             0.9564    -2.8787    -0.4329 C.ar    
   9 C9             1.4413    -4.1705    -0.4645 C.ar    
  10 C10            2.7517    -4.4324    -0.1023 C.ar    
  11 C11            3.5836    -3.4073     0.3024 C.ar    
  12 C12            3.1099    -2.1024     0.3486 C.ar    
  13 S13            4.1648    -0.8059     0.9041 S.3     
  14 C14            1.6040     3.1894    -0.0005 C.2     
  15 O15            2.7791     3.5003    -0.0168 O.2     
  16 N16            0.6541     4.1454     0.0170 N.am    
  17 C17           -1.1836    -0.8631     0.0276 C.3     
  18 C18            1.0173     5.4866     0.1252 C.ar    
  19 C19            0.0420     6.4736     0.0341 C.ar    
  20 C20            0.4156     7.8012     0.1436 C.ar    
  21 C21            1.7585     8.0975     0.3415 C.ar    
  22 C22            2.6738     7.0654     0.4223 C.ar    
  23 N23            2.2863     5.8084     0.3191 N.ar    
  24 Cl24           2.2811     9.7468     0.4850 Cl      
  25 H25            3.9421     0.5710    -1.0617 H       
  26 H26            3.9741     1.5491     0.4274 H       
  27 H27           -0.0659    -2.6778    -0.7173 H       
  28 H28            0.7963    -4.9799    -0.7732 H       
  29 H29            3.1255    -5.4451    -0.1362 H       
  30 H30            4.6044    -3.6205     0.5836 H       
  31 H31           -0.2822     3.9000    -0.0458 H       
  32 H32           -1.4950    -1.0723    -0.9958 H       
  33 H33           -0.9478    -1.7989     0.5342 H       
  34 H34           -1.9910    -0.3569     0.5568 H       
  35 H35           -0.9932     6.2074    -0.1204 H       
  36 H36           -0.3198     8.5892     0.0765 H       
  37 H37            3.7188     7.2904     0.5760 H       
@<TRIPOS>BOND
   1    1    2 1
   2    1    5 2
   3    2    3 1
   4    2   17 1
   5    3    4 2
   6    3    7 1
   7    4    5 1
   8    4    6 1
   9    5   14 1
  10    6   13 1
  11    6   25 1
  12    6   26 1
  13    7    8 ar
  14    7   12 ar
  15    8    9 ar
  16    8   27 1
  17    9   10 ar
  18    9   28 1
  19   10   11 ar
  20   10   29 1
  21   11   12 ar
  22   11   30 1
  23   12   13 1
  24   14   15 2
  25   14   16 am
  26   16   18 1
  27   16   31 1
  28   17   32 1
  29   17   33 1
  30   17   34 1
  31   18   19 ar
  32   18   23 ar
  33   19   20 ar
  34   19   35 1
  35   20   21 ar
  36   20   36 1
  37   21   22 ar
  38   21   24 1
  39   22   23 ar
  40   22   37 1

#	End of record

