#	Name: ASD03091091
#	Creating user name:	WinNT
#	Creation time:	15. 06. 2019 20:30

#	Modifying user name:	WinNT
#	Modification time:	15. 06. 2019 20:30

#	Program:	/corina/corina34_cracker 3.40 0067  02.08.2006

@<TRIPOS>MOLECULE
ASD03091091
  55   57    0    0    0
SMALL
NO_CHARGES


@<TRIPOS>ATOM
   1 C1            -0.0125     1.4695     0.0752 C.2     
   2 C2             0.0046    -0.0042     0.0336 C.ar    
   3 C3             1.2183    -0.6914    -0.1192 C.ar    
   4 C4             1.2254    -2.0795    -0.1574 C.ar    
   5 C5             0.0430    -2.7818    -0.0459 C.ar    
   6 C6            -1.1639    -2.1068     0.1058 C.ar    
   7 C7            -1.1870    -0.7239     0.1520 C.ar    
   8 O8             1.0335     2.0895     0.0894 O.2     
   9 N9            -1.1874     2.1296     0.0918 N.am    
  10 C10           -1.2043     3.5939     0.1331 C.3     
  11 C11           -2.6309     4.0796     0.1444 C.2     
  12 O12           -3.5435     3.2813     0.1203 O.2     
  13 N13           -2.8925     5.4013     0.1813 N.am    
  14 C14           -4.2793     5.8734     0.1922 C.3     
  15 C15           -4.3416     7.2576     0.8411 C.3     
  16 C16           -4.8001     5.9594    -1.2438 C.3     
  17 N17           -5.1821    -3.5240    -0.3417 N.3     
  18 C18           -4.7688    -2.6941     0.8002 C.3     
  19 C19           -3.4920    -1.9337     0.4775 C.3     
  20 N20           -2.3583    -2.8290     0.2180 N.3     
  21 C21           -2.6007    -3.6363    -0.9859 C.3     
  22 C22           -3.2064    -4.9805    -0.6106 C.3     
  23 C23           -4.6584    -4.8887    -0.1867 C.3     
  24 C24           -4.9361    -2.9721    -1.6567 C.3     
  25 C25           -3.4521    -2.8387    -1.9568 C.3     
  26 N26            2.4113     0.0160    -0.2326 N.pl3   
  27 H27            2.1584    -2.6106    -0.2749 H       
  28 H28            0.0545    -3.8613    -0.0770 H       
  29 H29           -2.1246    -0.2020     0.2743 H       
  30 H30           -2.0217     1.6351     0.0765 H       
  31 H31           -0.6963     3.9379     1.0340 H       
  32 H32           -0.6932     3.9881    -0.7452 H       
  33 H33           -2.1626     6.0398     0.2005 H       
  34 H34           -4.8956     5.1774     0.7612 H       
  35 H35           -3.7253     7.9537     0.2721 H       
  36 H36           -5.3734     7.6090     0.8492 H       
  37 H37           -3.9705     7.1964     1.8641 H       
  38 H38           -4.7557     4.9733    -1.7061 H       
  39 H39           -5.8319     6.3107    -1.2357 H       
  40 H40           -4.1838     6.6555    -1.8128 H       
  41 H41           -5.5614    -1.9828     1.0327 H       
  42 H42           -4.5966    -3.3341     1.6656 H       
  43 H43           -3.6625    -1.3154    -0.4039 H       
  44 H44           -3.2449    -1.2857     1.3184 H       
  45 H45           -1.6403    -3.8203    -1.4674 H       
  46 H46           -3.1346    -5.6481    -1.4693 H       
  47 H47           -2.6292    -5.4071     0.2096 H       
  48 H48           -4.7434    -5.1859     0.8586 H       
  49 H49           -5.2513    -5.5690    -0.7981 H       
  50 H50           -5.3908    -3.6226    -2.4038 H       
  51 H51           -5.3992    -1.9873    -1.7191 H       
  52 H52           -3.1710    -1.7875    -1.8937 H       
  53 H53           -3.2621    -3.1944    -2.9694 H       
  54 H54            2.3973     0.9839    -0.2947 H       
  55 H55            3.2570    -0.4589    -0.2495 H       
@<TRIPOS>BOND
   1    1    2 1
   2    1    8 2
   3    1    9 am
   4    2    3 ar
   5    2    7 ar
   6    3    4 ar
   7    3   26 1
   8    4    5 ar
   9    4   27 1
  10    5    6 ar
  11    5   28 1
  12    6    7 ar
  13    6   20 1
  14    7   29 1
  15    9   10 1
  16    9   30 1
  17   10   11 1
  18   10   31 1
  19   10   32 1
  20   11   12 2
  21   11   13 am
  22   13   14 1
  23   13   33 1
  24   14   15 1
  25   14   16 1
  26   14   34 1
  27   15   35 1
  28   15   36 1
  29   15   37 1
  30   16   38 1
  31   16   39 1
  32   16   40 1
  33   17   18 1
  34   17   23 1
  35   17   24 1
  36   18   19 1
  37   18   41 1
  38   18   42 1
  39   19   20 1
  40   19   43 1
  41   19   44 1
  42   20   21 1
  43   21   22 1
  44   21   25 1
  45   21   45 1
  46   22   23 1
  47   22   46 1
  48   22   47 1
  49   23   48 1
  50   23   49 1
  51   24   25 1
  52   24   50 1
  53   24   51 1
  54   25   52 1
  55   25   53 1
  56   26   54 1
  57   26   55 1

#	End of record

