#	Name: ASD01820115
#	Creating user name:	WinNT
#	Creation time:	15. 06. 2019 19:36

#	Modifying user name:	WinNT
#	Modification time:	15. 06. 2019 19:36

#	Program:	/corina/corina34_cracker 3.40 0067  02.08.2006

@<TRIPOS>MOLECULE
ASD01820115
  58   62    0    0    0
SMALL
NO_CHARGES


@<TRIPOS>ATOM
   1 O1             0.1172     1.3141     0.0201 O.3     
   2 C2             0.1160    -0.1149     0.0224 C.3     
   3 H3             0.6410    -0.5048    -0.8496 H       
   4 C4            -1.3253    -0.6664     0.0924 C.3     
   5 N5            -1.2446    -1.8674     0.9320 N.am    
   6 C6            -0.1038    -1.8907     1.6426 C.2     
   7 O7             0.2124    -2.7660     2.4200 O.2     
   8 C8             0.7295    -0.6666     1.3302 C.3     
   9 C9            -2.2219    -2.8541     0.9852 C.ar    
  10 C10           -3.3138    -2.7799     0.1203 C.ar    
  11 C11           -4.2784    -3.7509     0.1705 C.ar    
  12 C12           -4.1251    -4.7870     1.0979 C.ar    
  13 C13           -5.1200    -5.8657     1.2097 C.2     
  14 O14           -6.1099    -5.8931     0.4991 O.2     
  15 C15           -4.8685    -6.9110     2.2161 C.2     
  16 C16           -3.7317    -6.8278     2.9908 C.2     
  17 N17           -2.8465    -5.8263     2.8586 N.pl3   
  18 C18           -1.7192    -5.8170     3.6842 C.ar    
  19 N19           -0.6444    -6.5033     3.3329 N.ar    
  20 C20            0.4412    -6.5224     4.0821 C.ar    
  21 C21            0.4945    -5.8190     5.2721 C.ar    
  22 F22            1.6117    -5.8452     6.0314 F       
  23 C23           -0.6135    -5.0849     5.6779 C.ar    
  24 C24           -1.7362    -5.0809     4.8656 C.ar    
  25 F25           -2.8340    -4.3768     5.2182 F       
  26 C26           -3.0022    -4.8079     1.9439 C.ar    
  27 N27           -2.0934    -3.8453     1.8510 N.ar    
  28 C28           -5.8145    -8.0243     2.3919 C.2     
  29 O29           -5.5479    -8.9345     3.1535 O.2     
  30 N30           -6.9765    -8.0355     1.7091 N.am    
  31 C31           -7.8636    -9.1984     1.7919 C.3     
  32 C32           -9.2786    -8.7728     1.4959 C.ar    
  33 C33           -9.5159    -7.6517     0.7236 C.ar    
  34 C34          -10.8141    -7.2610     0.4519 C.ar    
  35 C35          -11.8753    -7.9912     0.9531 C.ar    
  36 C36          -11.6392    -9.1129     1.7258 C.ar    
  37 C37          -10.3406    -9.5077     1.9927 C.ar    
  38 Cl38         -10.0433   -10.9203     2.9571 Cl      
  39 C39           -7.4231   -10.2496     0.7712 C.3     
  40 F40           -6.1095   -10.6447     1.0460 F       
  41 F41           -8.2703   -11.3601     0.8503 F       
  42 F42           -7.4868    -9.7052    -0.5160 F       
  43 H43            1.0009     1.7067     0.0248 H       
  44 H44           -1.9887     0.0686     0.5481 H       
  45 H45           -1.6783    -0.9268    -0.9055 H       
  46 H46            1.7723    -0.9436     1.1752 H       
  47 H47            0.6438     0.0676     2.1312 H       
  48 H48           -3.3979    -1.9641    -0.5824 H       
  49 H49           -5.1341    -3.7174    -0.4875 H       
  50 H50           -3.5465    -7.5936     3.7294 H       
  51 H51            1.2994    -7.0948     3.7624 H       
  52 H52           -0.5984    -4.5269     6.6024 H       
  53 H53           -7.2253    -7.2736     1.1628 H       
  54 H54           -7.8140    -9.6225     2.7948 H       
  55 H55           -8.6871    -7.0803     0.3323 H       
  56 H56          -10.9990    -6.3848    -0.1517 H       
  57 H57          -12.8891    -7.6852     0.7412 H       
  58 H58          -12.4685    -9.6834     2.1173 H       
@<TRIPOS>BOND
   1    1    2 1
   2    1   43 1
   3    2    3 1
   4    2    8 1
   5    2    4 1
   6    4    5 1
   7    4   44 1
   8    4   45 1
   9    5    6 am
  10    5    9 1
  11    6    7 2
  12    6    8 1
  13    8   46 1
  14    8   47 1
  15    9   27 ar
  16    9   10 ar
  17   10   11 ar
  18   10   48 1
  19   11   12 ar
  20   11   49 1
  21   12   26 ar
  22   12   13 1
  23   13   14 2
  24   13   15 1
  25   15   16 2
  26   15   28 1
  27   16   17 1
  28   16   50 1
  29   17   18 1
  30   17   26 1
  31   18   24 ar
  32   18   19 ar
  33   19   20 ar
  34   20   21 ar
  35   20   51 1
  36   21   22 1
  37   21   23 ar
  38   23   24 ar
  39   23   52 1
  40   24   25 1
  41   26   27 ar
  42   28   29 2
  43   28   30 am
  44   30   31 1
  45   30   53 1
  46   31   32 1
  47   31   39 1
  48   31   54 1
  49   32   37 ar
  50   32   33 ar
  51   33   34 ar
  52   33   55 1
  53   34   35 ar
  54   34   56 1
  55   35   36 ar
  56   35   57 1
  57   36   37 ar
  58   36   58 1
  59   37   38 1
  60   39   40 1
  61   39   41 1
  62   39   42 1

#	End of record

