#	Name: ASD02560119
#	Creating user name:	WinNT
#	Creation time:	15. 06. 2019 20:24

#	Modifying user name:	WinNT
#	Modification time:	15. 06. 2019 20:24

#	Program:	/corina/corina34_cracker 3.40 0067  02.08.2006

@<TRIPOS>MOLECULE
ASD02560119
  53   56    0    0    0
SMALL
NO_CHARGES


@<TRIPOS>ATOM
   1 N1            -0.1988     1.4521     0.5999 N.2     
   2 N2            -0.5758     0.2840     0.4644 N.2     
   3 C3             1.1977     1.6124     0.1745 C.3     
   4 N4             1.7373     0.2303     0.1187 N.3     
   5 C5             0.4963    -0.5609    -0.0775 C.3     
   6 S6             0.5924    -2.1241     0.8378 S.3     
   7 C7             0.7945    -1.5791     2.5561 C.3     
   8 C8             0.8912    -2.7834     3.4570 C.2     
   9 O9             0.8298    -3.8994     2.9861 O.2     
  10 N10            1.0458    -2.6202     4.7858 N.am    
  11 Br11           1.2804     2.4519    -1.6013 Br      
  12 C12            2.6078     0.0752    -0.9662 C.ar    
  13 C13            1.0538    -3.7354     5.6317 C.ar    
  14 C14            0.3881    -3.6897     6.8510 C.ar    
  15 C15            0.3978    -4.7929     7.6832 C.ar    
  16 C16            1.0690    -5.9410     7.3036 C.ar    
  17 C17            1.7320    -5.9891     6.0913 C.ar    
  18 C18            1.7218    -4.8915     5.2522 C.ar    
  19 Cl19          -0.4540    -2.2485     7.3280 Cl      
  20 S20            1.0797    -7.3454     8.3676 S.o2    
  21 O21            2.2299    -8.1038     8.0195 O.2     
  22 O22            0.8390    -6.8564     9.6799 O.2     
  23 C23            2.3406    -0.8735    -1.9420 C.ar    
  24 C24            3.7424     0.8774    -1.0719 C.ar    
  25 C25            4.5999     0.7199    -2.1476 C.ar    
  26 C26            4.3297    -0.2319    -3.1143 C.ar    
  27 C27            3.2019    -1.0245    -3.0130 C.ar    
  28 C28            5.2643    -0.4010    -4.2843 C.3     
  29 O29            4.0066     1.8132    -0.1209 O.3     
  30 C30            5.9255    -1.7684    -4.4685 C.3     
  31 C31            4.8144    -1.3215    -5.4206 C.3     
  32 O32           -0.1255    -8.1989     7.9992 O.3     
  33 C33            5.1873     2.5992    -0.2945 C.3     
  34 F34            5.1063     3.3022    -1.5014 F       
  35 F35            5.3049     3.5046     0.7655 F       
  36 F36            6.3067     1.7604    -0.3177 F       
  37 H37            1.7504     2.2066     0.9023 H       
  38 H38            0.3307    -0.7505    -1.1380 H       
  39 H39            1.7043    -0.9854     2.6444 H       
  40 H40           -0.0639    -0.9744     2.8488 H       
  41 H41            1.1516    -1.7299     5.1561 H       
  42 H42           -0.1188    -4.7583     8.6309 H       
  43 H43            2.2554    -6.8872     5.7982 H       
  44 H44            2.2400    -4.9302     4.3054 H       
  45 H45            1.4602    -1.4943    -1.8651 H       
  46 H46            5.4796     1.3405    -2.2321 H       
  47 H47            2.9950    -1.7663    -3.7702 H       
  48 H48            5.8478     0.4802    -4.5511 H       
  49 H49            6.9439    -1.7868    -4.8567 H       
  50 H50            5.6845    -2.5457    -3.7434 H       
  51 H51            3.8424    -1.8048    -5.3219 H       
  52 H52            5.1017    -1.0459    -6.4353 H       
  53 H53           -0.2145    -9.0030     8.5288 H       
@<TRIPOS>BOND
   1    1    2 2
   2    1    3 1
   3    2    5 1
   4    3    4 1
   5    3   11 1
   6    3   37 1
   7    4    5 1
   8    4   12 1
   9    5    6 1
  10    5   38 1
  11    6    7 1
  12    7    8 1
  13    7   39 1
  14    7   40 1
  15    8    9 2
  16    8   10 am
  17   10   13 1
  18   10   41 1
  19   12   23 ar
  20   12   24 ar
  21   13   14 ar
  22   13   18 ar
  23   14   15 ar
  24   14   19 1
  25   15   16 ar
  26   15   42 1
  27   16   17 ar
  28   16   20 1
  29   17   18 ar
  30   17   43 1
  31   18   44 1
  32   20   21 2
  33   20   22 2
  34   20   32 1
  35   23   27 ar
  36   23   45 1
  37   24   25 ar
  38   24   29 1
  39   25   26 ar
  40   25   46 1
  41   26   27 ar
  42   26   28 1
  43   27   47 1
  44   28   30 1
  45   28   31 1
  46   28   48 1
  47   29   33 1
  48   30   31 1
  49   30   49 1
  50   30   50 1
  51   31   51 1
  52   31   52 1
  53   32   53 1
  54   33   34 1
  55   33   35 1
  56   33   36 1

#	End of record

