#	Name: ASD01840283
#	Creating user name:	WinNT
#	Creation time:	15. 06. 2019 19:37

#	Modifying user name:	WinNT
#	Modification time:	15. 06. 2019 19:37

#	Program:	/corina/corina34_cracker 3.40 0067  02.08.2006

@<TRIPOS>MOLECULE
ASD01840283
  38   41    0    0    0
SMALL
NO_CHARGES


@<TRIPOS>ATOM
   1 C1             0.4680     1.4669    -0.2129 C.3     
   2 C2             0.4636    -0.0374    -0.1235 C.ar    
   3 N3             0.1202    -0.7458    -1.1737 N.ar    
   4 C4             0.0980    -2.0796    -1.1544 C.ar    
   5 S5            -0.3214    -3.2302    -2.4199 S.3     
   6 C6            -0.0170    -4.5909    -1.3547 C.2     
   7 C7            -0.1659    -6.0020    -1.7385 C.2     
   8 O8            -0.0567    -6.8754    -0.8988 O.2     
   9 N9            -0.4235    -6.3281    -3.0205 N.am    
  10 C10           -0.5719    -7.7345    -3.4030 C.3     
  11 C11           -1.7218    -8.0924    -4.3466 C.3     
  12 C12           -0.2800    -8.1054    -4.8583 C.3     
  13 C13            0.3693    -4.1687    -0.1467 C.2     
  14 C14            0.6983    -5.1237     0.9717 C.3     
  15 C15            1.6668    -6.2671     0.6623 C.3     
  16 C16            2.1221    -5.0929     1.5311 C.3     
  17 C17            0.4474    -2.7765     0.0102 C.ar    
  18 C18            0.8196    -2.0257     1.1524 C.ar    
  19 C19            1.2056    -2.7181     2.4341 C.3     
  20 C20            0.8286    -0.6523     1.0673 C.ar    
  21 Cl21           1.2859     0.3054     2.4411 Cl      
  22 H22            1.4483     1.8082    -0.5456 H       
  23 H23           -0.2906     1.7907    -0.9255 H       
  24 H24            0.2495     1.8898     0.7677 H       
  25 H25           -0.5106    -5.6316    -3.6901 H       
  26 H26           -0.3057    -8.4611    -2.6353 H       
  27 H27           -2.2125    -9.0546    -4.1998 H       
  28 H28           -2.3679    -7.2815    -4.6829 H       
  29 H29            0.0225    -7.3031    -5.5313 H       
  30 H30            0.1779    -9.0762    -5.0482 H       
  31 H31           -0.1129    -5.3261     1.6710 H       
  32 H32            1.4927    -7.2221     1.1580 H       
  33 H33            2.0659    -6.3286    -0.3501 H       
  34 H34            2.8208    -4.3818     1.0902 H       
  35 H35            2.2475    -5.2754     2.5983 H       
  36 H36            2.2582    -2.9985     2.3928 H       
  37 H37            1.0419    -2.0440     3.2748 H       
  38 H38            0.5961    -3.6127     2.5616 H       
@<TRIPOS>BOND
   1    1    2 1
   2    1   22 1
   3    1   23 1
   4    1   24 1
   5    2   20 ar
   6    2    3 ar
   7    3    4 ar
   8    4   17 ar
   9    4    5 1
  10    5    6 1
  11    6    7 1
  12    6   13 2
  13    7    8 2
  14    7    9 am
  15    9   10 1
  16    9   25 1
  17   10   12 1
  18   10   11 1
  19   10   26 1
  20   11   12 1
  21   11   27 1
  22   11   28 1
  23   12   29 1
  24   12   30 1
  25   13   14 1
  26   13   17 1
  27   14   16 1
  28   14   15 1
  29   14   31 1
  30   15   16 1
  31   15   32 1
  32   15   33 1
  33   16   34 1
  34   16   35 1
  35   17   18 ar
  36   18   19 1
  37   18   20 ar
  38   19   36 1
  39   19   37 1
  40   19   38 1
  41   20   21 1

#	End of record

