#	Name: ASD02198355
#	Creating user name:	WinNT
#	Creation time:	15. 06. 2019 20:19

#	Modifying user name:	WinNT
#	Modification time:	15. 06. 2019 20:19

#	Program:	/corina/corina34_cracker 3.40 0067  02.08.2006

@<TRIPOS>MOLECULE
ASD02198355
  41   43    0    0    0
SMALL
NO_CHARGES


@<TRIPOS>ATOM
   1 C1            -0.0307     1.3681     0.1467 C.2     
   2 C2            -0.0275    -0.0135     0.1830 C.2     
   3 S3             1.6399     1.9112     0.2801 S.3     
   4 C4             2.1768     0.2917     0.3698 C.2     
   5 N5             1.1721    -0.5335     0.3026 N.2     
   6 N6            -1.1809    -0.7774     0.1015 N.pl3   
   7 C7            -1.1648     2.1931     0.0197 C.2     
   8 C8            -1.0286     3.6604     0.1386 C.ar    
   9 O9            -2.2594     1.6972    -0.1884 O.2     
  10 N10            3.4934    -0.0891     0.4960 N.pl3   
  11 C11           -1.9172     4.5027    -0.5333 C.ar    
  12 C12           -0.0144     4.2076     0.9277 C.ar    
  13 C13            0.1094     5.5752     1.0360 C.ar    
  14 C14           -0.7732     6.4101     0.3613 C.ar    
  15 C15           -1.7870     5.8693    -0.4202 C.ar    
  16 C16            3.8416    -1.5105     0.5639 C.3     
  17 C17            5.2881    -1.7224     0.0836 C.3     
  18 C18            6.0618    -2.3320     1.2709 C.3     
  19 C19            4.9644    -2.9987     2.1372 C.3     
  20 C20            3.7868    -1.9988     2.0262 C.3     
  21 O21           -0.6483     7.7575     0.4708 O.3     
  22 C22           -1.5890     8.5568    -0.2491 C.3     
  23 F23           -1.4864     8.2797    -1.6165 F       
  24 F24           -2.8841     8.2623     0.1905 F       
  25 H25           -2.0444    -0.3442     0.0143 H       
  26 H26           -1.1247    -1.7453     0.1318 H       
  27 H27            4.1908     0.5837     0.5401 H       
  28 H28           -2.7051     4.0830    -1.1411 H       
  29 H29            0.6716     3.5594     1.4525 H       
  30 H30            0.8931     5.9991     1.6462 H       
  31 H31           -2.4711     6.5213    -0.9430 H       
  32 H32            3.1550    -2.0926    -0.0509 H       
  33 H33            5.3035    -2.4080    -0.7636 H       
  34 H34            5.7310    -0.7677    -0.1999 H       
  35 H35            6.7752    -3.0772     0.9190 H       
  36 H36            6.5714    -1.5512     1.8354 H       
  37 H37            4.6863    -3.9700     1.7281 H       
  38 H38            5.2940    -3.0942     3.1718 H       
  39 H39            3.9291    -1.1641     2.7127 H       
  40 H40            2.8400    -2.5007     2.2256 H       
  41 H41           -1.3774     9.6119    -0.0753 H       
@<TRIPOS>BOND
   1    1    2 2
   2    1    3 1
   3    1    7 1
   4    2    6 1
   5    2    5 1
   6    3    4 1
   7    4    5 2
   8    4   10 1
   9    6   25 1
  10    6   26 1
  11    7    8 1
  12    7    9 2
  13    8   11 ar
  14    8   12 ar
  15   10   16 1
  16   10   27 1
  17   11   15 ar
  18   11   28 1
  19   12   13 ar
  20   12   29 1
  21   13   14 ar
  22   13   30 1
  23   14   15 ar
  24   14   21 1
  25   15   31 1
  26   16   17 1
  27   16   20 1
  28   16   32 1
  29   17   18 1
  30   17   33 1
  31   17   34 1
  32   18   19 1
  33   18   35 1
  34   18   36 1
  35   19   20 1
  36   19   37 1
  37   19   38 1
  38   20   39 1
  39   20   40 1
  40   21   22 1
  41   22   23 1
  42   22   24 1
  43   22   41 1

#	End of record

