#	Name: ASD04882314
#	Creating user name:	WinNT
#	Creation time:	15. 06. 2019 20:54

#	Modifying user name:	WinNT
#	Modification time:	15. 06. 2019 20:54

#	Program:	/corina/corina34_cracker 3.40 0067  02.08.2006

@<TRIPOS>MOLECULE
ASD04882314
  84   90    0    0    0
SMALL
NO_CHARGES


@<TRIPOS>ATOM
   1 N1            -0.0169     1.3970     0.0097 N.am    
   2 C2             0.1097     0.0022    -0.0340 C.ar    
   3 C3            -1.0276    -0.8061     0.0459 C.ar    
   4 C4            -0.9035    -2.1901     0.0027 C.ar    
   5 C5             0.3398    -2.7696    -0.1194 C.ar    
   6 C6             1.4813    -1.9670    -0.2002 C.ar    
   7 C7             1.3588    -0.5752    -0.1618 C.ar    
   8 N8            -2.2868    -0.2245     0.1694 N.3     
   9 C9            -3.1529    -0.5994    -0.9570 C.3     
  10 C10           -2.9095    -0.5838     1.4511 C.3     
  11 C11           -4.2532     0.1371     1.5823 C.3     
  12 N12           -5.1193    -0.2379     0.4558 N.3     
  13 C13           -4.4966     0.1215    -0.8259 C.3     
  14 C14            2.8131    -2.5880    -0.3310 C.2     
  15 O15            3.8056    -1.8890    -0.4013 O.2     
  16 C16            0.9210     2.1770    -0.5632 C.2     
  17 C17            0.7440     3.6400    -0.5949 C.2     
  18 O18            1.9136     1.6738    -1.0541 O.2     
  19 N19            2.9297    -3.9301    -0.3727 N.am    
  20 C20           -6.3823     0.3456     0.5797 C.ar    
  21 C21           -6.5091     1.7280     0.6236 C.ar    
  22 C22           -7.5150    -0.4555     0.6536 C.ar    
  23 C23           -8.7621     0.1246     0.7761 C.ar    
  24 C24           -8.8844     1.5014     0.8248 C.ar    
  25 C25           -7.7596     2.3016     0.7462 C.ar    
  26 C26            4.2523    -4.5467    -0.5026 C.3     
  27 N27           -0.3086     4.3381    -0.0886 N.2     
  28 C28           -0.1071     5.6030    -0.3070 C.2     
  29 O29            1.0592     5.7603    -0.9489 O.3     
  30 C30            1.6053     4.5473    -1.1309 C.2     
  31 C31           -7.3829    -1.9557     0.5996 C.3     
  32 C32           -1.0379     6.7173     0.0970 C.3     
  33 C33           -0.4922     7.7832     1.0493 C.3     
  34 C34           -0.7267     8.1217    -0.4243 C.3     
  35 O35            4.7091    -5.0356     0.7885 O.3     
  36 C36            4.1762    -5.7573    -1.3810 C.3     
  37 C37            5.3773    -6.6044    -0.7973 C.3     
  38 C38            5.0354    -6.4513     0.6713 C.3     
  39 C39            6.2403    -6.8026     1.5463 C.3     
  40 O40            5.8574    -6.7627     2.9225 O.3     
  41 O41            5.1606    -7.7773    -1.5505 O.3     
  42 O42            4.4155    -5.8861    -2.7445 O.3     
  43 C43            4.9352    -7.2403    -2.8903 C.3     
  44 C44            6.2543    -7.2088    -3.6648 C.3     
  45 C45            3.9177    -8.1090    -3.6325 C.3     
  46 H46           -0.7817     1.8010     0.4488 H       
  47 H47           -1.7841    -2.8123     0.0653 H       
  48 H48            0.4330    -3.8451    -0.1524 H       
  49 H49            2.2391     0.0475    -0.2240 H       
  50 H50           -2.6759    -0.3119    -1.8940 H       
  51 H51           -3.3159    -1.6771    -0.9474 H       
  52 H52           -3.0697    -1.6613     1.4881 H       
  53 H53           -2.2550    -0.2848     2.2699 H       
  54 H54           -4.7302    -0.1505     2.5192 H       
  55 H55           -4.0902     1.2148     1.5726 H       
  56 H56           -4.3364     1.1990    -0.8629 H       
  57 H57           -5.1511    -0.1775    -1.6446 H       
  58 H58            2.1380    -4.4877    -0.3166 H       
  59 H59           -5.6310     2.3536     0.5623 H       
  60 H60           -9.6431    -0.4975     0.8335 H       
  61 H61           -9.8610     1.9525     0.9199 H       
  62 H62           -7.8586     3.3764     0.7846 H       
  63 H63            4.9649    -3.8285    -0.9080 H       
  64 H64            2.5458     4.3321    -1.6163 H       
  65 H65           -7.2637    -2.3465     1.6101 H       
  66 H66           -8.2780    -2.3833     0.1479 H       
  67 H67           -6.5114    -2.2224     0.0017 H       
  68 H68           -2.0868     6.4394     0.2004 H       
  69 H69           -1.1822     8.2069     1.7789 H       
  70 H70            0.5400     7.6786     1.3836 H       
  71 H71            0.1512     8.2397    -1.0594 H       
  72 H72           -1.5710     8.7680    -0.6641 H       
  73 H73            3.2563    -6.2949    -1.1509 H       
  74 H74            6.3418    -6.1515    -1.0268 H       
  75 H75            4.1753    -7.0678     0.9328 H       
  76 H76            6.5917    -7.8036     1.2959 H       
  77 H77            7.0394    -6.0825     1.3704 H       
  78 H78            6.5736    -6.9755     3.5363 H       
  79 H79            6.9710    -6.5800    -3.1364 H       
  80 H80            6.6510    -8.2206    -3.7482 H       
  81 H81            6.0808    -6.8032    -4.6616 H       
  82 H82            3.7503    -7.7011    -4.6294 H       
  83 H83            4.3005    -9.1262    -3.7158 H       
  84 H84            2.9774    -8.1186    -3.0813 H       
@<TRIPOS>BOND
   1    1    2 1
   2    1   16 am
   3    1   46 1
   4    2    3 ar
   5    2    7 ar
   6    3    4 ar
   7    3    8 1
   8    4    5 ar
   9    4   47 1
  10    5    6 ar
  11    5   48 1
  12    6    7 ar
  13    6   14 1
  14    7   49 1
  15    8    9 1
  16    8   10 1
  17    9   13 1
  18    9   50 1
  19    9   51 1
  20   10   11 1
  21   10   52 1
  22   10   53 1
  23   11   12 1
  24   11   54 1
  25   11   55 1
  26   12   13 1
  27   12   20 1
  28   13   56 1
  29   13   57 1
  30   14   15 2
  31   14   19 am
  32   16   18 2
  33   16   17 1
  34   17   27 1
  35   17   30 2
  36   19   26 1
  37   19   58 1
  38   20   21 ar
  39   20   22 ar
  40   21   25 ar
  41   21   59 1
  42   22   23 ar
  43   22   31 1
  44   23   24 ar
  45   23   60 1
  46   24   25 ar
  47   24   61 1
  48   25   62 1
  49   26   35 1
  50   26   36 1
  51   26   63 1
  52   27   28 2
  53   28   29 1
  54   28   32 1
  55   29   30 1
  56   30   64 1
  57   31   65 1
  58   31   66 1
  59   31   67 1
  60   32   33 1
  61   32   34 1
  62   32   68 1
  63   33   34 1
  64   33   69 1
  65   33   70 1
  66   34   71 1
  67   34   72 1
  68   35   38 1
  69   36   37 1
  70   36   42 1
  71   36   73 1
  72   37   38 1
  73   37   41 1
  74   37   74 1
  75   38   39 1
  76   38   75 1
  77   39   40 1
  78   39   76 1
  79   39   77 1
  80   40   78 1
  81   41   43 1
  82   42   43 1
  83   43   44 1
  84   43   45 1
  85   44   79 1
  86   44   80 1
  87   44   81 1
  88   45   82 1
  89   45   83 1
  90   45   84 1

#	End of record

