#	Name: ASD00843226
#	Creating user name:	WinNT
#	Creation time:	15. 06. 2019 18:46

#	Modifying user name:	WinNT
#	Modification time:	15. 06. 2019 18:46

#	Program:	/corina/corina34_cracker 3.40 0067  02.08.2006

@<TRIPOS>MOLECULE
ASD00843226
  94   99    0    0    0
SMALL
NO_CHARGES


@<TRIPOS>ATOM
   1 N1             1.0006     1.1646    -0.3287 N.ar    
   2 C2             1.1630    -0.1217    -0.5895 C.ar    
   3 C3             1.0321    -1.0700     0.4172 C.ar    
   4 C4             0.7287    -0.6517     1.7009 C.ar    
   5 C5             0.5661     0.7073     1.9333 C.ar    
   6 C6             0.7108     1.5939     0.8851 C.ar    
   7 C7             1.2176    -2.5347     0.1153 C.3     
   8 C8             0.8815    -3.3734     1.3300 C.2     
   9 C9             0.3533    -2.9484    -1.0775 C.3     
  10 C10           -1.0818    -2.5725    -0.8123 C.2     
  11 N11           -2.0471    -2.9479    -1.6747 N.am    
  12 O12           -1.3681    -1.9322     0.1771 O.2     
  13 C13           -3.4356    -2.4965    -1.4968 C.3     
  14 C14           -3.9264    -1.8987    -2.8197 C.3     
  15 N15           -3.7240    -2.8743    -3.8991 N.3     
  16 C16           -2.2977    -3.1701    -4.0895 C.3     
  17 C17           -1.7389    -3.8149    -2.8221 C.3     
  18 C18           -4.3368    -2.4095    -5.1506 C.3     
  19 C19           -4.0003    -3.3877    -6.2794 C.3     
  20 C20           -4.6913    -2.9314    -7.5664 C.3     
  21 N21           -6.1434    -2.8830    -7.3531 N.3     
  22 C22           -6.4943    -1.9151    -6.3059 C.3     
  23 C23           -5.8571    -2.3412    -4.9814 C.3     
  24 C24           -6.8497    -2.5827    -8.6056 C.3     
  25 O25           -0.1932    -3.4332     1.8890 O.2     
  26 N26            1.9975    -4.0386     1.6727 N.am    
  27 C27            2.6737    -2.8403    -0.1510 C.ar    
  28 C28            3.0672    -3.7484     0.8242 C.ar    
  29 C29            3.5620    -2.4016    -1.1069 C.ar    
  30 C30            4.8664    -2.8667    -1.1034 C.ar    
  31 C31            5.2715    -3.7727    -0.1361 C.ar    
  32 C32            4.3803    -4.2132     0.8236 C.ar    
  33 Cl33           5.9902    -2.3171    -2.3070 Cl      
  34 F34            6.5437    -4.2273    -0.1314 F       
  35 C35            1.6728    -6.6853     2.3541 C.ar    
  36 C36            0.3916    -6.9354     1.8838 C.ar    
  37 C37            2.6213    -7.6903     2.3467 C.ar    
  38 C38            2.2968    -8.9461     1.8709 C.ar    
  39 C39            1.0166    -9.2013     1.3994 C.ar    
  40 C40            0.0633    -8.1951     1.4062 C.ar    
  41 O41            0.6979   -10.4369     0.9319 O.3     
  42 O42           -0.5408    -5.9469     1.8917 O.3     
  43 C43           -1.8389    -6.2754     1.3928 C.3     
  44 C44            1.7296   -11.4254     0.9551 C.3     
  45 C45           -8.3530    -2.7847    -8.4045 C.3     
  46 O46            1.4598    -0.5190    -1.8524 O.3     
  47 C47            1.5375     0.4996    -2.8515 C.3     
  48 C48            1.9697    -0.1220    -4.1811 C.3     
  49 F49            3.1838    -0.7953    -4.0083 F       
  50 F50            0.9928    -1.0255    -4.6128 F       
  51 S51            2.0928    -5.0828     2.9544 S.o2    
  52 O52            3.4636    -5.1396     3.3246 O.2     
  53 O53            1.0595    -4.7081     3.8550 O.2     
  54 H54            0.6205    -1.3661     2.5035 H       
  55 H55            0.3286     1.0671     2.9235 H       
  56 H56            0.5857     2.6521     1.0606 H       
  57 H57            0.7030    -2.4370    -1.9743 H       
  58 H58            0.4257    -4.0263    -1.2223 H       
  59 H59           -4.0638    -3.3439    -1.2224 H       
  60 H60           -3.4767    -1.7382    -0.7148 H       
  61 H61           -4.9869    -1.6598    -2.7396 H       
  62 H62           -3.3642    -0.9911    -3.0395 H       
  63 H63           -2.1769    -3.8531    -4.9303 H       
  64 H64           -1.7582    -2.2448    -4.2916 H       
  65 H65           -0.6592    -3.9309    -2.9158 H       
  66 H66           -2.2031    -4.7896    -2.6720 H       
  67 H67           -3.9522    -1.4203    -5.3991 H       
  68 H68           -2.9214    -3.4085    -6.4334 H       
  69 H69           -4.3497    -4.3852    -6.0128 H       
  70 H70           -4.3312    -1.9396    -7.8399 H       
  71 H71           -4.4653    -3.6337    -8.3687 H       
  72 H72           -6.1257    -0.9281    -6.5854 H       
  73 H73           -7.5778    -1.8793    -6.1928 H       
  74 H74           -6.2357    -3.3221    -4.6943 H       
  75 H75           -6.1049    -1.6142    -4.2079 H       
  76 H76           -6.6573    -1.5489    -8.8924 H       
  77 H77           -6.4954    -3.2497    -9.3915 H       
  78 H78            3.2418    -1.6958    -1.8591 H       
  79 H79            4.7025    -4.9191     1.5748 H       
  80 H80            3.6181    -7.4936     2.7131 H       
  81 H81            3.0400    -9.7296     1.8654 H       
  82 H82           -0.9335    -8.3919     1.0401 H       
  83 H83           -1.7588    -6.5941     0.3535 H       
  84 H84           -2.2635    -7.0833     1.9888 H       
  85 H85           -2.4847    -5.3996     1.4555 H       
  86 H86            2.5686   -11.0892     0.3459 H       
  87 H87            2.0638   -11.5777     1.9814 H       
  88 H88            1.3434   -12.3632     0.5558 H       
  89 H89           -8.5454    -3.8185    -8.1176 H       
  90 H90           -8.7073    -2.1176    -7.6186 H       
  91 H91           -8.8771    -2.5619    -9.3338 H       
  92 H92            0.5603     0.9678    -2.9700 H       
  93 H93            2.2661     1.2514    -2.5481 H       
  94 H94            2.0929     0.6636    -4.9265 H       
@<TRIPOS>BOND
   1    1    2 ar
   2    1    6 ar
   3    2    3 ar
   4    2   46 1
   5    3    4 ar
   6    3    7 1
   7    4    5 ar
   8    4   54 1
   9    5    6 ar
  10    5   55 1
  11    6   56 1
  12    7    8 1
  13    7    9 1
  14    7   27 1
  15    8   25 2
  16    8   26 am
  17    9   10 1
  18    9   57 1
  19    9   58 1
  20   10   11 am
  21   10   12 2
  22   11   13 1
  23   11   17 1
  24   13   14 1
  25   13   59 1
  26   13   60 1
  27   14   15 1
  28   14   61 1
  29   14   62 1
  30   15   16 1
  31   15   18 1
  32   16   17 1
  33   16   63 1
  34   16   64 1
  35   17   65 1
  36   17   66 1
  37   18   19 1
  38   18   23 1
  39   18   67 1
  40   19   20 1
  41   19   68 1
  42   19   69 1
  43   20   21 1
  44   20   70 1
  45   20   71 1
  46   21   22 1
  47   21   24 1
  48   22   23 1
  49   22   72 1
  50   22   73 1
  51   23   74 1
  52   23   75 1
  53   24   45 1
  54   24   76 1
  55   24   77 1
  56   26   51 am
  57   26   28 1
  58   27   28 ar
  59   27   29 ar
  60   28   32 ar
  61   29   30 ar
  62   29   78 1
  63   30   31 ar
  64   30   33 1
  65   31   32 ar
  66   31   34 1
  67   32   79 1
  68   35   36 ar
  69   35   37 ar
  70   35   51 1
  71   36   42 1
  72   36   40 ar
  73   37   38 ar
  74   37   80 1
  75   38   39 ar
  76   38   81 1
  77   39   40 ar
  78   39   41 1
  79   40   82 1
  80   41   44 1
  81   42   43 1
  82   43   83 1
  83   43   84 1
  84   43   85 1
  85   44   86 1
  86   44   87 1
  87   44   88 1
  88   45   89 1
  89   45   90 1
  90   45   91 1
  91   46   47 1
  92   47   48 1
  93   47   92 1
  94   47   93 1
  95   48   49 1
  96   48   50 1
  97   48   94 1
  98   51   52 2
  99   51   53 2

#	End of record

