#	Name: ASD01881321
#	Creating user name:	WinNT
#	Creation time:	15. 06. 2019 19:42

#	Modifying user name:	WinNT
#	Modification time:	15. 06. 2019 19:42

#	Program:	/corina/corina34_cracker 3.40 0067  02.08.2006

@<TRIPOS>MOLECULE
ASD01881321
  57   58    0    0    0
SMALL
NO_CHARGES


@<TRIPOS>ATOM
   1 C1            -0.0179     1.4697     0.0101 C.2     
   2 C2             0.0021    -0.0041     0.0020 C.ar    
   3 C3             1.2222    -0.6895    -0.0133 C.ar    
   4 C4             1.2352    -2.0677    -0.0209 C.ar    
   5 C5             0.0394    -2.7756    -0.0133 C.ar    
   6 C6            -1.1746    -2.0981     0.0019 C.ar    
   7 C7            -1.1976    -0.7217     0.0154 C.ar    
   8 O8             1.0260     2.0915     0.0035 O.2     
   9 O9            -1.1940     2.1275     0.0193 O.3     
  10 O10            0.0566    -4.1325    -0.0213 O.3     
  11 C11           -1.2082    -4.7974    -0.0128 C.3     
  12 C12           -0.9885    -6.3115    -0.0236 C.3     
  13 C13           -2.3428    -7.0234    -0.0145 C.3     
  14 C14           -2.1231    -8.5375    -0.0253 C.3     
  15 O15           -3.3879    -9.2024    -0.0168 O.3     
  16 C16           -3.3707   -10.5590    -0.0248 C.ar    
  17 C17           -4.5657   -11.2646    -0.0172 C.ar    
  18 C18           -4.5506   -12.6484    -0.0253 C.ar    
  19 C19           -3.3199   -13.3297    -0.0412 C.ar    
  20 C20           -2.1233   -12.6004    -0.0486 C.ar    
  21 C21           -2.1543   -11.2362    -0.0462 C.ar    
  22 C22           -3.2893   -14.7943    -0.0494 C.2     
  23 C23           -1.9689   -15.5204    -0.0664 C.3     
  24 C24           -2.2170   -17.0301    -0.0721 C.3     
  25 C25           -2.9142   -17.4274    -1.3747 C.3     
  26 O26           -4.3272   -15.4228    -0.0425 O.2     
  27 C27           -0.8806   -17.7670     0.0364 C.3     
  28 C28           -5.8785   -10.5248     0.0003 C.3     
  29 O29           -5.7150   -13.3433    -0.0175 O.3     
  30 Cl30           2.7162     0.1945    -0.0233 Cl      
  31 H31            2.1759    -2.5981    -0.0331 H       
  32 H32           -2.1013    -2.6527     0.0074 H       
  33 H33           -2.1414    -0.1969     0.0321 H       
  34 H34           -1.1565     3.0938     0.0244 H       
  35 H35           -1.7602    -4.5167     0.8842 H       
  36 H36           -1.7775    -4.5065    -0.8956 H       
  37 H37           -0.4365    -6.5921    -0.9206 H       
  38 H38           -0.4192    -6.6023     0.8592 H       
  39 H39           -2.8948    -6.7428     0.8825 H       
  40 H40           -2.9121    -6.7325    -0.8973 H       
  41 H41           -1.5711    -8.8182    -0.9223 H       
  42 H42           -1.5538    -8.8284     0.8575 H       
  43 H43           -1.1757   -13.1185    -0.0608 H       
  44 H44           -1.2296   -10.6783    -0.0568 H       
  45 H45           -1.4118   -15.2404    -0.9604 H       
  46 H46           -1.3941   -15.2500     0.8194 H       
  47 H47           -2.8492   -17.2976     0.7746 H       
  48 H48           -3.0910   -18.5030    -1.3788 H       
  49 H49           -3.8663   -16.9024    -1.4520 H       
  50 H50           -2.2820   -17.1599    -2.2214 H       
  51 H51           -0.3839   -17.4840     0.9645 H       
  52 H52           -1.0574   -18.8426     0.0324 H       
  53 H53           -0.2484   -17.4995    -0.8103 H       
  54 H54           -6.2052   -10.3402    -1.0231 H       
  55 H55           -6.6269   -11.1248     0.5179 H       
  56 H56           -5.7529    -9.5742     0.5187 H       
  57 H57           -6.0617   -13.5398    -0.8986 H       
@<TRIPOS>BOND
   1    1    2 1
   2    1    8 2
   3    1    9 1
   4    2    3 ar
   5    2    7 ar
   6    3    4 ar
   7    3   30 1
   8    4    5 ar
   9    4   31 1
  10    5    6 ar
  11    5   10 1
  12    6    7 ar
  13    6   32 1
  14    7   33 1
  15    9   34 1
  16   10   11 1
  17   11   12 1
  18   11   35 1
  19   11   36 1
  20   12   13 1
  21   12   37 1
  22   12   38 1
  23   13   14 1
  24   13   39 1
  25   13   40 1
  26   14   15 1
  27   14   41 1
  28   14   42 1
  29   15   16 1
  30   16   17 ar
  31   16   21 ar
  32   17   18 ar
  33   17   28 1
  34   18   19 ar
  35   18   29 1
  36   19   20 ar
  37   19   22 1
  38   20   21 ar
  39   20   43 1
  40   21   44 1
  41   22   23 1
  42   22   26 2
  43   23   24 1
  44   23   45 1
  45   23   46 1
  46   24   25 1
  47   24   27 1
  48   24   47 1
  49   25   48 1
  50   25   49 1
  51   25   50 1
  52   27   51 1
  53   27   52 1
  54   27   53 1
  55   28   54 1
  56   28   55 1
  57   28   56 1
  58   29   57 1

#	End of record

