#	Name: ASD01940082
#	Creating user name:	WinNT
#	Creation time:	15. 06. 2019 20:11

#	Modifying user name:	WinNT
#	Modification time:	15. 06. 2019 20:11

#	Program:	/corina/corina34_cracker 3.40 0067  02.08.2006

@<TRIPOS>MOLECULE
ASD01940082
  34   35    0    0    0
SMALL
NO_CHARGES


@<TRIPOS>ATOM
   1 F1             1.8727     1.5509     2.2249 F       
   2 C2             1.0383     2.1442     1.3433 C.ar    
   3 C3             1.3671     2.1851    -0.0052 C.ar    
   4 C4             0.5031     2.7983    -0.9110 C.ar    
   5 C5            -0.6805     3.3646    -0.4616 C.ar    
   6 C6            -1.0027     3.3208     0.8824 C.ar    
   7 C7            -0.1490     2.7072     1.7832 C.ar    
   8 N8             2.5647     1.6118    -0.4542 N.pl3   
   9 N9             0.8299     2.8430    -2.2728 N.am    
  10 C10            2.6046     0.2603    -0.8004 C.ar    
  11 C11            1.4427    -0.5016    -0.7569 C.ar    
  12 C12            1.4789    -1.8366    -1.0982 C.ar    
  13 C13            2.6836    -2.4238    -1.4883 C.ar    
  14 C14            3.8497    -1.6566    -1.5317 C.ar    
  15 C15            3.8068    -0.3207    -1.1940 C.ar    
  16 Cl16           5.2553     0.6346    -1.2480 Cl      
  17 C17            2.7239    -3.8107    -1.8429 C.1     
  18 F18           -0.4715     2.6620     3.0943 F       
  19 S19            0.4201     4.1666    -3.1797 S.o2    
  20 C20            1.2723     5.5497    -2.3726 C.3     
  21 O21            0.9888     3.9068    -4.4557 O.2     
  22 O22           -0.9864     4.2828    -3.0144 O.2     
  23 C23            2.7569    -4.9476    -2.1336 C.1     
  24 H24           -1.3510     3.8404    -1.1619 H       
  25 H25           -1.9248     3.7628     1.2297 H       
  26 H26            3.3657     2.1543    -0.5244 H       
  27 H27            1.2962     2.0986    -2.6843 H       
  28 H28            0.5106    -0.0472    -0.4551 H       
  29 H29            0.5758    -2.4279    -1.0635 H       
  30 H30            4.7833    -2.1084    -1.8328 H       
  31 H31            2.3471     5.3683    -2.3800 H       
  32 H32            1.0560     6.4731    -2.9100 H       
  33 H33            0.9260     5.6389    -1.3430 H       
  34 H34            2.7865    -5.9645    -2.3936 H       
@<TRIPOS>BOND
   1    1    2 1
   2    2    3 ar
   3    2    7 ar
   4    3    4 ar
   5    3    8 1
   6    4    5 ar
   7    4    9 1
   8    5    6 ar
   9    5   24 1
  10    6    7 ar
  11    6   25 1
  12    7   18 1
  13    8   10 1
  14    8   26 1
  15    9   19 am
  16    9   27 1
  17   10   11 ar
  18   10   15 ar
  19   11   12 ar
  20   11   28 1
  21   12   13 ar
  22   12   29 1
  23   13   14 ar
  24   13   17 1
  25   14   15 ar
  26   14   30 1
  27   15   16 1
  28   17   23 3
  29   19   20 1
  30   19   21 2
  31   19   22 2
  32   20   31 1
  33   20   32 1
  34   20   33 1
  35   23   34 1

#	End of record

