#	Name: ASD01882371
#	Creating user name:	WinNT
#	Creation time:	15. 06. 2019 19:44

#	Modifying user name:	WinNT
#	Modification time:	15. 06. 2019 19:44

#	Program:	/corina/corina34_cracker 3.40 0067  02.08.2006

@<TRIPOS>MOLECULE
ASD01882371
  48   51    0    0    0
SMALL
NO_CHARGES


@<TRIPOS>ATOM
   1 C1            -0.0170     1.4050     0.0098 C.2     
   2 C2             0.0021    -0.0041     0.0020 C.2     
   3 C3             1.1991    -0.6521    -0.0129 C.2     
   4 C4             2.3930     0.0893    -0.0203 C.2     
   5 C5             2.3588     1.4383    -0.0123 C.2     
   6 N6             1.1665     2.1012     0.0022 N.pl3   
   7 N7            -0.4824     3.4846     0.0225 N.2     
   8 N8            -0.9895     2.3019     0.0186 N.2     
   9 C9             0.8240     3.4179     0.0121 C.2     
  10 C10            1.7759     4.5862     0.0100 C.3     
  11 C11            2.0856     4.9891    -1.4332 C.3     
  12 F12            0.8998     5.3525    -2.0805 F       
  13 F13            2.9692     6.0737    -1.4352 F       
  14 F14            2.6708     3.9095    -2.1035 F       
  15 C15            1.2438    -2.1584    -0.0209 C.3     
  16 N16            1.3656    -2.6373    -1.4043 N.3     
  17 C17            1.6494    -4.0776    -1.4395 C.3     
  18 C18            1.9131    -4.5118    -2.8831 C.3     
  19 C19            0.6841    -4.1937    -3.7392 C.3     
  20 C20            0.3812    -2.6956    -3.6467 C.3     
  21 C21            0.1619    -2.3141    -2.1809 C.3     
  22 C22            0.9601    -4.5640    -5.1737 C.ar    
  23 C23            0.1695    -5.5028    -5.8096 C.ar    
  24 C24            0.4227    -5.8425    -7.1254 C.ar    
  25 C25            1.4662    -5.2431    -7.8055 C.ar    
  26 C26            2.2563    -4.3036    -7.1699 C.ar    
  27 C27            2.0005    -3.9607    -5.8554 C.ar    
  28 Cl28          -1.4832    -0.9027     0.0120 Cl      
  29 H29            3.3434    -0.4236    -0.0322 H       
  30 H30            3.2826     1.9976    -0.0178 H       
  31 H31            1.3200     5.4273     0.5322 H       
  32 H32            2.6998     4.3030     0.5143 H       
  33 H33            2.1017    -2.4995     0.5585 H       
  34 H34            0.3279    -2.5514     0.4204 H       
  35 H35            2.5280    -4.2897    -0.8302 H       
  36 H36            0.7936    -4.6261    -1.0459 H       
  37 H37            2.7773    -3.9737    -3.2728 H       
  38 H38            2.1084    -5.5838    -2.9108 H       
  39 H39           -0.1714    -4.7616    -3.3736 H       
  40 H40            1.2213    -2.1290    -4.0484 H       
  41 H41           -0.5180    -2.4701    -4.2199 H       
  42 H42           -0.6869    -2.8709    -1.7838 H       
  43 H43           -0.0399    -1.2453    -2.1101 H       
  44 H44           -0.6459    -5.9711    -5.2783 H       
  45 H45           -0.1946    -6.5765    -7.6220 H       
  46 H46            1.6645    -5.5090    -8.8333 H       
  47 H47            3.0719    -3.8355    -7.7011 H       
  48 H48            2.6154    -3.2240    -5.3600 H       
@<TRIPOS>BOND
   1    1    2 1
   2    1    6 1
   3    1    8 2
   4    2    3 2
   5    2   28 1
   6    3    4 1
   7    3   15 1
   8    4    5 2
   9    4   29 1
  10    5    6 1
  11    5   30 1
  12    6    9 1
  13    7    8 1
  14    7    9 2
  15    9   10 1
  16   10   11 1
  17   10   31 1
  18   10   32 1
  19   11   12 1
  20   11   13 1
  21   11   14 1
  22   15   16 1
  23   15   33 1
  24   15   34 1
  25   16   17 1
  26   16   21 1
  27   17   18 1
  28   17   35 1
  29   17   36 1
  30   18   19 1
  31   18   37 1
  32   18   38 1
  33   19   20 1
  34   19   22 1
  35   19   39 1
  36   20   21 1
  37   20   40 1
  38   20   41 1
  39   21   42 1
  40   21   43 1
  41   22   23 ar
  42   22   27 ar
  43   23   24 ar
  44   23   44 1
  45   24   25 ar
  46   24   45 1
  47   25   26 ar
  48   25   46 1
  49   26   27 ar
  50   26   47 1
  51   27   48 1

#	End of record

