#	Name: ASD00122090
#	Creating user name:	WinNT
#	Creation time:	15. 06. 2019 18:31

#	Modifying user name:	WinNT
#	Modification time:	15. 06. 2019 18:31

#	Program:	/corina/corina34_cracker 3.40 0067  02.08.2006

@<TRIPOS>MOLECULE
ASD00122090
  54   56    0    0    0
SMALL
NO_CHARGES


@<TRIPOS>ATOM
   1 C1            -0.0169     1.3920     0.0097 C.ar    
   2 C2             0.0021    -0.0041     0.0020 C.ar    
   3 N3            -1.1542    -0.6649     0.0095 N.ar    
   4 C4            -2.3029    -0.0196     0.0239 C.ar    
   5 N5            -2.3652     1.2965     0.0311 N.ar    
   6 C6            -1.2564     2.0343     0.0308 C.ar    
   7 S7            -1.3525     3.7937     0.0411 S.3     
   8 C8            -3.1396     4.1048     0.0500 C.3     
   9 C9            -3.3907     5.5907     0.0593 C.ar    
  10 C10           -3.5105     6.2779    -1.1344 C.ar    
  11 C11           -3.7408     7.6400    -1.1285 C.ar    
  12 C12           -3.8518     8.3183     0.0765 C.ar    
  13 C13           -3.7313     7.6265     1.2730 C.ar    
  14 C14           -3.5066     6.2635     1.2617 C.ar    
  15 O15           -4.0779     9.6584     0.0850 O.3     
  16 C16           -4.1810    10.2909     1.3622 C.3     
  17 C17           -4.4341    11.7876     1.1712 C.3     
  18 N18            1.1780     2.1299     0.0022 N.pl3   
  19 S19            1.5319    -0.8780    -0.0178 S.3     
  20 C20            1.0095    -2.6152    -0.0220 C.3     
  21 C21            2.2253    -3.5054    -0.0388 C.ar    
  22 C22            2.7940    -3.9195     1.1516 C.ar    
  23 C23            3.9086    -4.7355     1.1388 C.ar    
  24 C24            4.4573    -5.1395    -0.0696 C.ar    
  25 C25            3.8848    -4.7226    -1.2626 C.ar    
  26 C26            2.7669    -3.9112    -1.2444 C.ar    
  27 O27            5.5540    -5.9419    -0.0848 O.3     
  28 C28            6.0648    -6.3183    -1.3652 C.3     
  29 C29            7.2909    -7.2150    -1.1816 C.3     
  30 H30           -3.2219    -0.5870     0.0295 H       
  31 H31           -3.5892     3.6659    -0.8407 H       
  32 H32           -3.5821     3.6559     0.9392 H       
  33 H33           -3.4236     5.7495    -2.0723 H       
  34 H34           -3.8339     8.1764    -2.0613 H       
  35 H35           -3.8173     8.1523     2.2124 H       
  36 H36           -3.4127     5.7244     2.1928 H       
  37 H37           -5.0078     9.8509     1.9199 H       
  38 H38           -3.2526    10.1470     1.9149 H       
  39 H39           -4.5127    12.2701     2.1454 H       
  40 H40           -3.6073    12.2277     0.6136 H       
  41 H41           -5.3625    11.9315     0.6185 H       
  42 H42            2.0320     1.6700    -0.0084 H       
  43 H43            1.1494     3.0994     0.0077 H       
  44 H44            0.4216    -2.8199     0.8728 H       
  45 H45            0.4040    -2.8104    -0.9071 H       
  46 H46            2.3667    -3.6044     2.0921 H       
  47 H47            4.3526    -5.0584     2.0689 H       
  48 H48            4.3101    -5.0358    -2.2046 H       
  49 H49            2.3209    -3.5864    -2.1729 H       
  50 H50            5.2974    -6.8608    -1.9174 H       
  51 H51            6.3484    -5.4242    -1.9204 H       
  52 H52            7.6805    -7.5021    -2.1583 H       
  53 H53            8.0583    -6.6725    -0.6294 H       
  54 H54            7.0073    -8.1091    -0.6264 H       
@<TRIPOS>BOND
   1    1    2 ar
   2    1   18 1
   3    1    6 ar
   4    2    3 ar
   5    2   19 1
   6    3    4 ar
   7    4    5 ar
   8    4   30 1
   9    5    6 ar
  10    6    7 1
  11    7    8 1
  12    8    9 1
  13    8   31 1
  14    8   32 1
  15    9   10 ar
  16    9   14 ar
  17   10   11 ar
  18   10   33 1
  19   11   12 ar
  20   11   34 1
  21   12   13 ar
  22   12   15 1
  23   13   14 ar
  24   13   35 1
  25   14   36 1
  26   15   16 1
  27   16   17 1
  28   16   37 1
  29   16   38 1
  30   17   39 1
  31   17   40 1
  32   17   41 1
  33   18   42 1
  34   18   43 1
  35   19   20 1
  36   20   21 1
  37   20   44 1
  38   20   45 1
  39   21   22 ar
  40   21   26 ar
  41   22   23 ar
  42   22   46 1
  43   23   24 ar
  44   23   47 1
  45   24   25 ar
  46   24   27 1
  47   25   26 ar
  48   25   48 1
  49   26   49 1
  50   27   28 1
  51   28   29 1
  52   28   50 1
  53   28   51 1
  54   29   52 1
  55   29   53 1
  56   29   54 1

#	End of record

