#	Name: ASD04162003
#	Creating user name:	WinNT
#	Creation time:	15. 06. 2019 20:48

#	Modifying user name:	WinNT
#	Modification time:	15. 06. 2019 20:48

#	Program:	/corina/corina34_cracker 3.40 0067  02.08.2006

@<TRIPOS>MOLECULE
ASD04162003
  39   42    0    0    0
SMALL
NO_CHARGES


@<TRIPOS>ATOM
   1 C1             0.5604     1.9875     2.7239 C.ar    
   2 C2             0.1549     0.6898     2.4467 C.ar    
   3 C3             0.8835    -0.0955     1.5599 C.ar    
   4 C4             2.0186     0.4196     0.9502 C.ar    
   5 C5             2.4247     1.7276     1.2308 C.ar    
   6 C6             1.6881     2.5065     2.1213 C.ar    
   7 O7            -0.9572     0.1845     3.0440 O.3     
   8 O8             0.4839    -1.3683     1.2907 O.3     
   9 O9             2.7336    -0.3453     0.0830 O.3     
  10 C10            3.6366     2.2844     0.5834 C.2     
  11 C11            3.7375     3.5463    -0.0548 C.2     
  12 C12            5.0138     3.6716    -0.5150 C.2     
  13 N13            5.6844     2.5483    -0.1852 N.pl3   
  14 N14            4.8113     1.6980     0.5038 N.2     
  15 C15            2.6513     4.5475    -0.1962 C.2     
  16 C16            2.5259     5.7417     0.5407 C.2     
  17 C17            1.4094     6.3746     0.1187 C.2     
  18 N18            0.8412     5.6136    -0.8527 N.pl3   
  19 N19            1.6401     4.4776    -1.0360 N.2     
  20 C20           -0.3347     5.9148    -1.5523 C.ar    
  21 C21           -0.7171     5.1374    -2.6374 C.ar    
  22 C22           -1.8771     5.4366    -3.3248 C.ar    
  23 C23           -2.6571     6.5094    -2.9337 C.ar    
  24 C24           -2.2789     7.2855    -1.8535 C.ar    
  25 C25           -1.1230     6.9880    -1.1585 C.ar    
  26 H26           -0.0111     2.5949     3.4101 H       
  27 H27            1.9999     3.5172     2.3396 H       
  28 H28           -1.7733     0.3357     2.5477 H       
  29 H29           -0.1261    -1.4394     0.5438 H       
  30 H30            2.4462    -0.2699    -0.8372 H       
  31 H31            5.4169     4.5192    -1.0494 H       
  32 H32            6.6146     2.3628    -0.3879 H       
  33 H33            3.2021     6.0894     1.3077 H       
  34 H34            1.0350     7.3179     0.4881 H       
  35 H35           -0.1080     4.2998    -2.9438 H       
  36 H36           -2.1751     4.8323    -4.1689 H       
  37 H37           -3.5633     6.7418    -3.4732 H       
  38 H38           -2.8901     8.1227    -1.5504 H       
  39 H39           -0.8281     7.5945    -0.3150 H       
@<TRIPOS>BOND
   1    1    2 ar
   2    1    6 ar
   3    1   26 1
   4    2    3 ar
   5    2    7 1
   6    3    4 ar
   7    3    8 1
   8    4    5 ar
   9    4    9 1
  10    5    6 ar
  11    5   10 1
  12    6   27 1
  13    7   28 1
  14    8   29 1
  15    9   30 1
  16   10   11 1
  17   10   14 2
  18   11   12 2
  19   11   15 1
  20   12   13 1
  21   12   31 1
  22   13   14 1
  23   13   32 1
  24   15   16 1
  25   15   19 2
  26   16   17 2
  27   16   33 1
  28   17   18 1
  29   17   34 1
  30   18   19 1
  31   18   20 1
  32   20   21 ar
  33   20   25 ar
  34   21   22 ar
  35   21   35 1
  36   22   23 ar
  37   22   36 1
  38   23   24 ar
  39   23   37 1
  40   24   25 ar
  41   24   38 1
  42   25   39 1

#	End of record

