#	Name: ASD02030444
#	Creating user name:	WinNT
#	Creation time:	15. 06. 2019 20:15

#	Modifying user name:	WinNT
#	Modification time:	15. 06. 2019 20:15

#	Program:	/corina/corina34_cracker 3.40 0067  02.08.2006

@<TRIPOS>MOLECULE
ASD02030444
  21   22    0    0    0
SMALL
NO_CHARGES


@<TRIPOS>ATOM
   1 N1            -0.0154     1.2843     0.0091 N.pl3   
   2 N2             0.0021    -0.0041     0.0020 N.2     
   3 C3             1.2537    -0.4086    -0.0121 C.2     
   4 N4             2.0411     0.6829    -0.0138 N.2     
   5 C5             1.2550     1.7289    -0.0006 C.2     
   6 C6             1.7137    -1.8126    -0.0233 C.2     
   7 O7             0.9031    -2.7174    -0.0197 O.2     
   8 O8             3.0320    -2.0895    -0.0375 O.3     
   9 C9            -1.2159     2.1239     0.0196 C.3     
  10 C10           -2.1142     1.7441    -1.1593 C.3     
  11 C11           -3.4786     2.4295    -1.2573 C.3     
  12 C12           -2.3607     2.8079    -2.2310 C.3     
  13 H13            1.5689     2.7623     0.0016 H       
  14 H14            3.2846    -3.0229    -0.0444 H       
  15 H15           -1.7577     1.9715     0.9531 H       
  16 H16           -0.9274     3.1715    -0.0661 H       
  17 H17           -2.0477     0.7063    -1.4858 H       
  18 H18           -4.3096     1.8427    -1.6487 H       
  19 H19           -3.7362     3.1509    -0.4819 H       
  20 H20           -1.8829     3.7783    -2.0961 H       
  21 H21           -2.4562     2.4701    -3.2629 H       
@<TRIPOS>BOND
   1    1    2 1
   2    1    5 1
   3    1    9 1
   4    2    3 2
   5    3    4 1
   6    3    6 1
   7    4    5 2
   8    5   13 1
   9    6    7 2
  10    6    8 1
  11    8   14 1
  12    9   10 1
  13    9   15 1
  14    9   16 1
  15   10   11 1
  16   10   12 1
  17   10   17 1
  18   11   12 1
  19   11   18 1
  20   11   19 1
  21   12   20 1
  22   12   21 1

#	End of record

