#	Name: ASD01917541
#	Creating user name:	WinNT
#	Creation time:	15. 06. 2019 20:09

#	Modifying user name:	WinNT
#	Modification time:	15. 06. 2019 20:09

#	Program:	/corina/corina34_cracker 3.40 0067  02.08.2006

@<TRIPOS>MOLECULE
ASD01917541
  41   44    0    0    0
SMALL
NO_CHARGES


@<TRIPOS>ATOM
   1 C1            -0.0167     1.3815     0.0096 C.ar    
   2 C2             0.0021    -0.0041     0.0020 C.ar    
   3 C3             1.2301    -0.6500    -0.0132 C.ar    
   4 C4             2.3931     0.0994    -0.0203 C.ar    
   5 N5             2.3518     1.4154    -0.0128 N.ar    
   6 C6             1.1979     2.0763     0.0018 C.ar    
   7 C7             1.1983     3.5082     0.0090 C.1     
   8 C8             1.1987     4.6822     0.0149 C.1     
   9 C9             1.1991     6.1142     0.0221 C.ar    
  10 C10           -0.0073     6.8275     0.0428 C.ar    
  11 C11            2.4022     6.8246     0.0144 C.ar    
  12 N12            2.4016     8.1414     0.0214 N.ar    
  13 C13            1.2814     8.8379     0.0354 C.ar    
  14 C14            0.0486     8.2095     0.0489 C.ar    
  15 C15           -1.2200     9.0226     0.0701 C.3     
  16 C16           -1.2232    11.3105     0.0484 C.2     
  17 N17           -1.0311    10.2547     0.8510 N.am    
  18 C18           -1.5597     9.5326    -1.3437 C.3     
  19 O19           -1.5269    10.9833    -1.2127 O.3     
  20 C20           -2.9334     9.0704    -1.7562 C.ar    
  21 C21           -4.0476     9.8013    -1.3880 C.ar    
  22 C22           -3.0781     7.9188    -2.5073 C.ar    
  23 C23           -4.3374     7.4942    -2.8865 C.ar    
  24 C24           -5.4544     8.2224    -2.5136 C.ar    
  25 C25           -5.3079     9.3784    -1.7657 C.ar    
  26 O26           -1.1305    12.4600     0.4312 O.2     
  27 F27           -6.6859     7.8085    -2.8841 F       
  28 F28           -1.1899     2.0514     0.0189 F       
  29 H29           -0.9186    -0.5687     0.0081 H       
  30 H30            1.2777    -1.7289    -0.0191 H       
  31 H31            3.3493    -0.4027    -0.0317 H       
  32 H32           -0.9560     6.3114     0.0533 H       
  33 H33            3.3402     6.2894     0.0030 H       
  34 H34            1.3273     9.9169     0.0411 H       
  35 H35           -2.0441     8.4339     0.4730 H       
  36 H36           -0.8047    10.2962     1.7932 H       
  37 H37           -0.8110     9.1967    -2.0612 H       
  38 H38           -3.9331    10.7030    -0.8047 H       
  39 H39           -2.2067     7.3510    -2.7981 H       
  40 H40           -4.4501     6.5949    -3.4739 H       
  41 H41           -6.1782     9.9494    -1.4777 H       
@<TRIPOS>BOND
   1    1    2 ar
   2    1    6 ar
   3    1   28 1
   4    2    3 ar
   5    2   29 1
   6    3    4 ar
   7    3   30 1
   8    4    5 ar
   9    4   31 1
  10    5    6 ar
  11    6    7 1
  12    7    8 3
  13    8    9 1
  14    9   11 ar
  15    9   10 ar
  16   10   14 ar
  17   10   32 1
  18   11   12 ar
  19   11   33 1
  20   12   13 ar
  21   13   14 ar
  22   13   34 1
  23   14   15 1
  24   15   18 1
  25   15   17 1
  26   15   35 1
  27   16   17 am
  28   16   19 1
  29   16   26 2
  30   17   36 1
  31   18   19 1
  32   18   20 1
  33   18   37 1
  34   20   22 ar
  35   20   21 ar
  36   21   25 ar
  37   21   38 1
  38   22   23 ar
  39   22   39 1
  40   23   24 ar
  41   23   40 1
  42   24   25 ar
  43   24   27 1
  44   25   41 1

#	End of record

