#	Name: ASD01911145
#	Creating user name:	WinNT
#	Creation time:	15. 06. 2019 19:57

#	Modifying user name:	WinNT
#	Modification time:	15. 06. 2019 19:57

#	Program:	/corina/corina34_cracker 3.40 0067  02.08.2006

@<TRIPOS>MOLECULE
ASD01911145
  42   45    0    0    0
SMALL
NO_CHARGES


@<TRIPOS>ATOM
   1 C1            -0.0167     1.3769     0.0096 C.ar    
   2 C2             0.0021    -0.0041     0.0020 C.ar    
   3 C3             1.2148    -0.6805    -0.0132 C.ar    
   4 C4             2.4052     0.0345    -0.0208 C.ar    
   5 C5             2.3798     1.4153    -0.0132 C.ar    
   6 C6             1.1705     2.0860     0.0021 C.ar    
   7 N7             1.2372    -2.0811    -0.0205 N.pl3   
   8 N8             0.3284    -2.9225     0.6337 N.2     
   9 C9             0.6738    -4.1704     0.3948 C.2     
  10 C10            1.8193    -4.1607    -0.4233 C.2     
  11 C11            2.1430    -2.8640    -0.6698 C.2     
  12 C12           -0.0237    -5.3784     0.9010 C.ar    
  13 C13           -1.1531    -5.2476     1.7066 C.ar    
  14 C14           -1.7982    -6.3746     2.1742 C.ar    
  15 C15           -1.3256    -7.6321     1.8445 C.ar    
  16 C16           -0.2049    -7.7677     1.0451 C.ar    
  17 C17            0.4449    -6.6476     0.5677 C.ar    
  18 N18            3.2146    -2.4160    -1.4402 N.am    
  19 C19            4.0445    -3.3045    -2.0217 C.2     
  20 C20            5.1765    -2.8313    -2.8356 C.2     
  21 O21            3.8584    -4.4976    -1.8741 O.2     
  22 C22            6.0474    -3.6657    -3.4470 C.2     
  23 S23            7.2073    -2.7330    -4.2878 S.3     
  24 C24            6.4633    -1.2839    -3.7751 C.2     
  25 N25            5.4358    -1.5377    -3.0438 N.2     
  26 C26            6.9407     0.0997    -4.1341 C.3     
  27 H27           -0.9595     1.9036     0.0169 H       
  28 H28           -0.9254    -0.5573     0.0083 H       
  29 H29            3.3499    -0.4887    -0.0323 H       
  30 H30            3.3053     1.9719    -0.0187 H       
  31 H31            1.1533     3.1658     0.0077 H       
  32 H32            2.3449    -5.0289    -0.7925 H       
  33 H33           -1.5227    -4.2663     1.9649 H       
  34 H34           -2.6735    -6.2744     2.7990 H       
  35 H35           -1.8333    -8.5112     2.2129 H       
  36 H36            0.1601    -8.7519     0.7911 H       
  37 H37            1.3196    -6.7546    -0.0567 H       
  38 H38            3.3630    -1.4647    -1.5580 H       
  39 H39            6.0155    -4.7446    -3.4101 H       
  40 H40            7.8258     0.0260    -4.7660 H       
  41 H41            6.1532     0.6276    -4.6719 H       
  42 H42            7.1884     0.6461    -3.2241 H       
@<TRIPOS>BOND
   1    1    2 ar
   2    1    6 ar
   3    1   27 1
   4    2    3 ar
   5    2   28 1
   6    3    4 ar
   7    3    7 1
   8    4    5 ar
   9    4   29 1
  10    5    6 ar
  11    5   30 1
  12    6   31 1
  13    7    8 1
  14    7   11 1
  15    8    9 2
  16    9   10 1
  17    9   12 1
  18   10   11 2
  19   10   32 1
  20   11   18 1
  21   12   13 ar
  22   12   17 ar
  23   13   14 ar
  24   13   33 1
  25   14   15 ar
  26   14   34 1
  27   15   16 ar
  28   15   35 1
  29   16   17 ar
  30   16   36 1
  31   17   37 1
  32   18   19 am
  33   18   38 1
  34   19   20 1
  35   19   21 2
  36   20   22 2
  37   20   25 1
  38   22   23 1
  39   22   39 1
  40   23   24 1
  41   24   25 2
  42   24   26 1
  43   26   40 1
  44   26   41 1
  45   26   42 1

#	End of record

