#	Name: ASD07300151
#	Creating user name:	WinNT
#	Creation time:	15. 06. 2019 21:09

#	Modifying user name:	WinNT
#	Modification time:	15. 06. 2019 21:09

#	Program:	/corina/corina34_cracker 3.40 0067  02.08.2006

@<TRIPOS>MOLECULE
ASD07300151
  42   46    0    0    0
SMALL
NO_CHARGES


@<TRIPOS>ATOM
   1 C1            -0.8902     1.0588    -0.1181 C.ar    
   2 C2            -1.0551    -0.3088    -0.3088 C.ar    
   3 C3             0.0043    -1.1691    -0.1241 C.ar    
   4 C4             1.2298    -0.6329     0.2546 C.ar    
   5 C5             1.3348     0.7329     0.4294 C.ar    
   6 N6             0.3007     1.5274     0.2443 N.ar    
   7 N7            -2.0909     1.7227    -0.3551 N.am    
   8 C8            -2.4966    -0.5146    -0.7084 C.3     
   9 C9            -3.0806     0.8825    -0.7008 C.2     
  10 O10           -4.2252     1.1864    -0.9623 O.2     
  11 C11           -2.2492     3.1115    -0.2453 C.ar    
  12 C12           -3.4845     3.6919    -0.5002 C.ar    
  13 C13           -3.6400     5.0595    -0.3915 C.ar    
  14 C14           -2.5620     5.8538    -0.0280 C.ar    
  15 C15           -1.3274     5.2743     0.2268 C.ar    
  16 C16           -1.1722     3.9062     0.1240 C.ar    
  17 O17           -2.7155     7.2005     0.0780 O.3     
  18 C18           -4.3016     9.0785     2.6017 C.ar    
  19 C19           -4.3417     7.7664     3.1066 C.ar    
  20 C20           -4.9391     7.5369     4.3488 C.ar    
  21 C21           -5.4672     8.6189     5.0291 C.ar    
  22 C22           -5.3900     9.8825     4.4674 C.ar    
  23 N23           -4.8218    10.0778     3.2945 N.ar    
  24 C24           -3.3484     7.6834     1.1716 C.2     
  25 N25           -3.6679     8.9945     1.3772 N.pl3   
  26 N26           -3.7403     6.9642     2.1912 N.2     
  27 C27           -3.3904    10.1078     0.4662 C.3     
  28 H28           -0.1138    -2.2328    -0.2694 H       
  29 H29            2.0852    -1.2737     0.4099 H       
  30 H30            2.2831     1.1578     0.7239 H       
  31 H31           -2.5583    -0.9554    -1.7034 H       
  32 H32           -3.0098    -1.1414     0.0209 H       
  33 H33           -4.3235     3.0738    -0.7838 H       
  34 H34           -4.6008     5.5111    -0.5897 H       
  35 H35           -0.4886     5.8931     0.5097 H       
  36 H36           -0.2123     3.4548     0.3267 H       
  37 H37           -4.9874     6.5418     4.7659 H       
  38 H38           -5.9369     8.4795     5.9916 H       
  39 H39           -5.8035    10.7251     5.0017 H       
  40 H40           -2.4144    10.5335     0.6995 H       
  41 H41           -3.3923     9.7453    -0.5617 H       
  42 H42           -4.1579    10.8729     0.5831 H       
@<TRIPOS>BOND
   1    1    2 ar
   2    1    6 ar
   3    1    7 1
   4    2    3 ar
   5    2    8 1
   6    3    4 ar
   7    3   28 1
   8    4    5 ar
   9    4   29 1
  10    5    6 ar
  11    5   30 1
  12    7    9 am
  13    7   11 1
  14    8    9 1
  15    8   31 1
  16    8   32 1
  17    9   10 2
  18   11   12 ar
  19   11   16 ar
  20   12   13 ar
  21   12   33 1
  22   13   14 ar
  23   13   34 1
  24   14   15 ar
  25   14   17 1
  26   15   16 ar
  27   15   35 1
  28   16   36 1
  29   17   24 1
  30   18   19 ar
  31   18   23 ar
  32   18   25 1
  33   19   20 ar
  34   19   26 1
  35   20   21 ar
  36   20   37 1
  37   21   22 ar
  38   21   38 1
  39   22   23 ar
  40   22   39 1
  41   24   25 1
  42   24   26 2
  43   25   27 1
  44   27   40 1
  45   27   41 1
  46   27   42 1

#	End of record

