#	Name: ASD05260003
#	Creating user name:	WinNT
#	Creation time:	15. 06. 2019 20:58

#	Modifying user name:	WinNT
#	Modification time:	15. 06. 2019 20:58

#	Program:	/corina/corina34_cracker 3.40 0067  02.08.2006

@<TRIPOS>MOLECULE
ASD05260003
  50   52    0    0    0
SMALL
NO_CHARGES


@<TRIPOS>ATOM
   1 O1            -0.0173     1.4248     0.0099 O.3     
   2 C2             0.0021    -0.0041     0.0020 C.3     
   3 C3            -1.4333    -0.5336     0.0129 C.3     
   4 O4            -2.0891    -0.1579    -1.1999 O.3     
   5 C5            -3.4511    -0.5826    -1.2826 C.3     
   6 O6            -4.0161    -0.1342    -2.5161 O.3     
   7 C7            -4.1340     1.2086    -2.6887 C.ar    
   8 C8            -4.6733     1.7100    -3.8611 C.ar    
   9 C9            -4.7940     3.0906    -4.0373 C.ar    
  10 C10           -5.3679     3.6296    -5.2834 C.2     
  11 C11           -5.4829     4.9569    -5.4504 C.2     
  12 C12           -6.0565     5.4957    -6.6961 C.ar    
  13 C13           -6.1773     6.8771    -6.8723 C.ar    
  14 C14           -6.7140     7.3762    -8.0391 C.ar    
  15 C15           -7.1346     6.5091    -9.0393 C.ar    
  16 C16           -7.0171     5.1356    -8.8687 C.ar    
  17 C17           -6.4764     4.6272    -7.7077 C.ar    
  18 O18           -7.6631     7.0059   -10.1880 O.3     
  19 C19           -4.3696     3.9584    -3.0287 C.ar    
  20 C20           -3.8315     3.4471    -1.8596 C.ar    
  21 C21           -3.7189     2.0750    -1.6871 C.ar    
  22 O22           -3.4177     4.2905    -0.8776 O.3     
  23 C23           -3.5123    -2.1110    -1.2186 C.3     
  24 C24           -2.8509    -2.5869     0.0785 C.3     
  25 C25           -1.4135    -2.0600     0.1288 C.3     
  26 O26           -0.6644    -2.6117    -0.9559 O.3     
  27 O27           -3.5828    -2.0871     1.1995 O.3     
  28 O28           -4.8765    -2.5357    -1.2428 O.3     
  29 H29            0.8606     1.8301     0.0037 H       
  30 H30            0.5123    -0.3556    -0.8948 H       
  31 H31            0.5293    -0.3651     0.8851 H       
  32 H32           -1.9702    -0.1113     0.8623 H       
  33 H33           -4.0145    -0.1609    -0.4502 H       
  34 H34           -4.9998     1.0349    -4.6384 H       
  35 H35           -5.6958     2.9569    -6.0621 H       
  36 H36           -5.1549     5.6296    -4.6718 H       
  37 H37           -5.8508     7.5520    -6.0950 H       
  38 H38           -6.8080     8.4434    -8.1760 H       
  39 H39           -7.3462     4.4653    -9.6489 H       
  40 H40           -6.3854     3.5591    -7.5758 H       
  41 H41           -7.0100     7.1742   -10.8809 H       
  42 H42           -4.4605     5.0265    -3.1604 H       
  43 H43           -3.2987     1.6800    -0.7739 H       
  44 H44           -4.1041     4.5104    -0.2329 H       
  45 H45           -2.9833    -2.5328    -2.0732 H       
  46 H46           -2.8410    -3.6765     0.1042 H       
  47 H47           -0.9531    -2.3476     1.0741 H       
  48 H48           -0.6143    -3.5773    -0.9483 H       
  49 H49           -4.5051    -2.3762     1.2276 H       
  50 H50           -5.3590    -2.2641    -2.0356 H       
@<TRIPOS>BOND
   1    1    2 1
   2    1   29 1
   3    2    3 1
   4    2   30 1
   5    2   31 1
   6    3    4 1
   7    3   25 1
   8    3   32 1
   9    4    5 1
  10    5    6 1
  11    5   23 1
  12    5   33 1
  13    6    7 1
  14    7    8 ar
  15    7   21 ar
  16    8    9 ar
  17    8   34 1
  18    9   10 1
  19    9   19 ar
  20   10   11 2
  21   10   35 1
  22   11   12 1
  23   11   36 1
  24   12   13 ar
  25   12   17 ar
  26   13   14 ar
  27   13   37 1
  28   14   15 ar
  29   14   38 1
  30   15   16 ar
  31   15   18 1
  32   16   17 ar
  33   16   39 1
  34   17   40 1
  35   18   41 1
  36   19   20 ar
  37   19   42 1
  38   20   21 ar
  39   20   22 1
  40   21   43 1
  41   22   44 1
  42   23   24 1
  43   23   28 1
  44   23   45 1
  45   24   25 1
  46   24   27 1
  47   24   46 1
  48   25   26 1
  49   25   47 1
  50   26   48 1
  51   27   49 1
  52   28   50 1

#	End of record

