#	Name: ASD02770008
#	Creating user name:	WinNT
#	Creation time:	15. 06. 2019 20:26

#	Modifying user name:	WinNT
#	Modification time:	15. 06. 2019 20:26

#	Program:	/corina/corina34_cracker 3.40 0067  02.08.2006

@<TRIPOS>MOLECULE
ASD02770008
  52   51    0    0    0
SMALL
NO_CHARGES


@<TRIPOS>ATOM
   1 C1            -0.0184     1.5028     0.0103 C.2     
   2 C2             0.0021    -0.0041     0.0020 C.3     
   3 O3             1.0236     2.1234     0.0037 O.2     
   4 N4            -1.1946     2.1607     0.0195 N.am    
   5 O5             1.3556    -0.4620    -0.0134 O.3     
   6 C6             1.5521    -1.8078    -0.0225 C.ar    
   7 C7             1.6410    -2.4889    -1.2268 C.ar    
   8 C8             1.8413    -3.8574    -1.2338 C.ar    
   9 C9             1.9527    -4.5488    -0.0418 C.ar    
  10 C10            1.8649    -3.8754     1.1623 C.ar    
  11 C11            1.6701    -2.5033     1.1766 C.ar    
  12 C12            2.1699    -6.0400    -0.0550 C.3     
  13 N13            3.6109    -6.3248    -0.0716 N.3     
  14 C14            3.8614    -7.7722    -0.0849 C.3     
  15 C15            5.3696    -8.0288    -0.1019 C.3     
  16 N16            5.6200    -9.4762    -0.1152 N.3     
  17 C17            7.0392    -9.7630    -0.3699 C.3     
  18 C18            7.2662   -11.2761    -0.3160 C.3     
  19 O19            6.4060   -11.9161    -1.2625 O.3     
  20 C20            5.0164   -11.6587    -1.0437 C.3     
  21 C21            4.7666   -10.1495    -1.1050 C.3     
  22 O22            1.5891    -1.8389     2.3605 O.3     
  23 C23            1.7191    -2.6176     3.5516 C.3     
  24 Br24           1.4879    -1.5471    -2.8594 Br      
  25 H25           -0.4983    -0.3791     0.8948 H       
  26 H26           -0.5153    -0.3696    -0.8850 H       
  27 H27           -2.0280     1.6644     0.0207 H       
  28 H28           -1.2077     3.1306     0.0248 H       
  29 H29            1.9104    -4.3871    -2.1725 H       
  30 H30            1.9523    -4.4180     2.0919 H       
  31 H31            1.7228    -6.4802     0.8363 H       
  32 H32            1.7049    -6.4670    -0.9436 H       
  33 H33            4.0598    -5.8730    -0.8542 H       
  34 H34            3.4259    -8.2245     0.8062 H       
  35 H35            3.4081    -8.2113    -0.9736 H       
  36 H36            5.8050    -7.5765    -0.9930 H       
  37 H37            5.8229    -7.5897     0.7868 H       
  38 H38            7.3150    -9.3885    -1.3557 H       
  39 H39            7.6510    -9.2759     0.3894 H       
  40 H40            8.3051   -11.4973    -0.5606 H       
  41 H41            7.0415   -11.6424     0.6857 H       
  42 H42            4.4282   -12.1565    -1.8146 H       
  43 H43            4.7263   -12.0361    -0.0631 H       
  44 H44            3.7195    -9.9445    -0.8823 H       
  45 H45            5.0061    -9.7811    -2.1026 H       
  46 H46            1.6358    -1.9668     4.4220 H       
  47 H47            0.9297    -3.3686     3.5827 H       
  48 H48            2.6908    -3.1113     3.5587 H       
  49 Cl49          13.3051     8.1306     9.4220 Cl      
  50 H50           13.3051     9.5006     9.4220 H       
  51 Cl51          18.3051    14.5006    14.4220 Cl      
  52 H52           18.3051    15.8706    14.4220 H       
@<TRIPOS>BOND
   1    1    2 1
   2    1    3 2
   3    1    4 am
   4    2    5 1
   5    2   25 1
   6    2   26 1
   7    4   27 1
   8    4   28 1
   9    5    6 1
  10    6    7 ar
  11    6   11 ar
  12    7    8 ar
  13    7   24 1
  14    8    9 ar
  15    8   29 1
  16    9   10 ar
  17    9   12 1
  18   10   11 ar
  19   10   30 1
  20   11   22 1
  21   12   13 1
  22   12   31 1
  23   12   32 1
  24   13   14 1
  25   13   33 1
  26   14   15 1
  27   14   34 1
  28   14   35 1
  29   15   16 1
  30   15   36 1
  31   15   37 1
  32   16   17 1
  33   16   21 1
  34   17   18 1
  35   17   38 1
  36   17   39 1
  37   18   19 1
  38   18   40 1
  39   18   41 1
  40   19   20 1
  41   20   21 1
  42   20   42 1
  43   20   43 1
  44   21   44 1
  45   21   45 1
  46   22   23 1
  47   23   46 1
  48   23   47 1
  49   23   48 1
  50   49   50 1
  51   51   52 1

#	End of record

