#	Name: ASD02038379
#	Creating user name:	WinNT
#	Creation time:	15. 06. 2019 20:16

#	Modifying user name:	WinNT
#	Modification time:	15. 06. 2019 20:16

#	Program:	/corina/corina34_cracker 3.40 0067  02.08.2006

@<TRIPOS>MOLECULE
ASD02038379
  48   51    0    0    0
SMALL
NO_CHARGES


@<TRIPOS>ATOM
   1 N1            -0.0162     1.3436     0.0094 N.am    
   2 C2             0.0021    -0.0041     0.0020 C.2     
   3 C3            -1.2926    -0.7753     0.0102 C.3     
   4 O4            -1.0125    -2.1765     0.0000 O.3     
   5 C5            -2.0793    -3.0193     0.0057 C.ar    
   6 C6            -1.8761    -4.3844    -0.0036 C.ar    
   7 C7            -2.9778    -5.2465     0.0028 C.ar    
   8 C8            -4.2822    -4.7183     0.0186 C.ar    
   9 C9            -4.4646    -3.3392     0.0277 C.ar    
  10 C10           -3.3721    -2.5008     0.0266 C.ar    
  11 C11            1.2357     2.1156     0.0016 C.3     
  12 C12            1.1612     3.1524    -1.1243 C.3     
  13 N13           -0.0610     3.9524    -0.9688 N.3     
  14 C14           -1.2637     3.1194    -1.1013 C.3     
  15 C15           -1.2886     2.0812     0.0194 C.3     
  16 C16           -0.0841     5.0139    -1.8784 C.ar    
  17 C17           -1.1594     5.8928    -1.8941 C.ar    
  18 C18           -1.1798     6.9419    -2.7948 C.ar    
  19 C19           -0.1275     7.1154    -3.6816 C.ar    
  20 C20            0.9440     6.2399    -3.6661 C.ar    
  21 C21            0.9707     5.1941    -2.7633 C.ar    
  22 F22           -0.1488     8.1401    -4.5618 F       
  23 O23            1.0605    -0.5961    -0.0113 O.2     
  24 C24           -2.8003    -6.6998    -0.0072 C.2     
  25 C25           -3.9039    -7.4876    -0.0008 C.2     
  26 C26           -5.1906    -6.9083     0.0151 C.2     
  27 N27           -5.3641    -5.5752     0.0244 N.am    
  28 O28           -6.1693    -7.6349     0.0202 O.2     
  29 F29           -2.2251     7.7976    -2.8114 F       
  30 H30           -1.8592    -0.5245     0.9070 H       
  31 H31           -1.8762    -0.5150    -0.8728 H       
  32 H32           -0.8730    -4.7845    -0.0160 H       
  33 H33           -5.4625    -2.9263     0.0398 H       
  34 H34           -3.5191    -1.4308     0.0337 H       
  35 H35            1.3592     2.6225     0.9586 H       
  36 H36            2.0778     1.4458    -0.1725 H       
  37 H37            2.0323     3.8057    -1.0753 H       
  38 H38            1.1421     2.6426    -2.0875 H       
  39 H39           -2.1512     3.7488    -1.0356 H       
  40 H40           -1.2490     2.6100    -2.0648 H       
  41 H41           -2.1158     1.3897    -0.1405 H       
  42 H42           -1.4069     2.5823     0.9801 H       
  43 H43           -1.9789     5.7568    -1.2039 H       
  44 H44            1.7624     6.3767    -4.3574 H       
  45 H45            1.8075     4.5115    -2.7522 H       
  46 H46           -1.8119    -7.1348    -0.0198 H       
  47 H47           -3.7978    -8.5624    -0.0084 H       
  48 H48           -6.2628    -5.2102     0.0353 H       
@<TRIPOS>BOND
   1    1    2 am
   2    1   11 1
   3    1   15 1
   4    2   23 2
   5    2    3 1
   6    3    4 1
   7    3   30 1
   8    3   31 1
   9    4    5 1
  10    5    6 ar
  11    5   10 ar
  12    6    7 ar
  13    6   32 1
  14    7    8 ar
  15    7   24 1
  16    8    9 ar
  17    8   27 1
  18    9   10 ar
  19    9   33 1
  20   10   34 1
  21   11   12 1
  22   11   35 1
  23   11   36 1
  24   12   13 1
  25   12   37 1
  26   12   38 1
  27   13   14 1
  28   13   16 1
  29   14   15 1
  30   14   39 1
  31   14   40 1
  32   15   41 1
  33   15   42 1
  34   16   17 ar
  35   16   21 ar
  36   17   18 ar
  37   17   43 1
  38   18   19 ar
  39   18   29 1
  40   19   20 ar
  41   19   22 1
  42   20   21 ar
  43   20   44 1
  44   21   45 1
  45   24   25 2
  46   24   46 1
  47   25   26 1
  48   25   47 1
  49   26   27 am
  50   26   28 2
  51   27   48 1

#	End of record

