#	Name: ASD01140398
#	Creating user name:	WinNT
#	Creation time:	15. 06. 2019 19:00

#	Modifying user name:	WinNT
#	Modification time:	15. 06. 2019 19:00

#	Program:	/corina/corina34_cracker 3.40 0067  02.08.2006

@<TRIPOS>MOLECULE
ASD01140398
  44   48    0    0    0
SMALL
NO_CHARGES


@<TRIPOS>ATOM
   1 S1            -0.0211     1.7052     0.0114 S.3     
   2 C2             0.0021    -0.0041     0.0020 C.2     
   3 N3             1.2234    -0.4376    -0.0120 N.2     
   4 C4             2.1810     0.4671    -0.0163 C.2     
   5 C5             1.7403     1.7410    -0.0052 C.2     
   6 O6            -1.0994    -0.7932     0.0090 O.3     
   7 C7            -1.8742    -4.4224     0.5840 C.3     
   8 C8            -2.0382    -2.9010     0.7294 C.3     
   9 C9            -0.8854    -2.2061    -0.0008 C.3     
  10 C10           -0.8172    -2.7009    -1.4484 C.3     
  11 C11           -0.7359    -4.2359    -1.4461 C.3     
  12 C12            0.3457    -4.6507    -0.4223 C.3     
  13 C13           -0.4065    -4.7740     0.9192 C.3     
  14 N14           -2.0058    -4.7437    -0.8621 N.3     
  15 C15           -2.1388    -6.1918    -1.0697 C.3     
  16 C16            4.1912     5.2240    -0.0090 C.ar    
  17 C17            2.8001     5.3660     0.0051 C.ar    
  18 C18            2.3989     6.7639     0.0171 C.2     
  19 C19            3.3951     7.6268     0.0126 C.2     
  20 S20            4.9474     6.8129    -0.0070 S.3     
  21 C21            1.9966     4.2076     0.0061 C.ar    
  22 C22            2.5858     2.9541    -0.0068 C.ar    
  23 C23            3.9811     2.8338    -0.0208 C.ar    
  24 C24            4.7647     3.9477    -0.0271 C.ar    
  25 H25            3.2299     0.2100    -0.0273 H       
  26 H26           -2.5818    -4.9727     1.2041 H       
  27 H27           -2.9871    -2.5925     0.2905 H       
  28 H28           -2.0174    -2.6308     1.7851 H       
  29 H29            0.0534    -2.4340     0.5041 H       
  30 H30           -1.7111    -2.3835    -1.9852 H       
  31 H31            0.0677    -2.2892    -1.9336 H       
  32 H32           -0.5386    -4.6380    -2.4399 H       
  33 H33            0.7840    -5.6090    -0.7008 H       
  34 H34            1.1181    -3.8846    -0.3551 H       
  35 H35           -0.0039    -4.0685     1.6460 H       
  36 H36           -0.3380    -5.7929     1.3002 H       
  37 H37           -3.0255    -6.5536    -0.5492 H       
  38 H38           -2.2334    -6.3989    -2.1356 H       
  39 H39           -1.2561    -6.6975    -0.6782 H       
  40 H40            1.3637     7.0714     0.0284 H       
  41 H41            3.2708     8.6996     0.0194 H       
  42 H42            0.9204     4.2976     0.0169 H       
  43 H43            4.4370     1.8548    -0.0308 H       
  44 H44            5.8397     3.8448    -0.0380 H       
@<TRIPOS>BOND
   1    1    2 1
   2    1    5 1
   3    2    3 2
   4    2    6 1
   5    3    4 1
   6    4    5 2
   7    4   25 1
   8    5   22 1
   9    6    9 1
  10    7    8 1
  11    7   13 1
  12    7   14 1
  13    7   26 1
  14    8    9 1
  15    8   27 1
  16    8   28 1
  17    9   10 1
  18    9   29 1
  19   10   11 1
  20   10   30 1
  21   10   31 1
  22   11   12 1
  23   11   14 1
  24   11   32 1
  25   12   13 1
  26   12   33 1
  27   12   34 1
  28   13   35 1
  29   13   36 1
  30   14   15 1
  31   15   37 1
  32   15   38 1
  33   15   39 1
  34   16   17 ar
  35   16   20 1
  36   16   24 ar
  37   17   18 1
  38   17   21 ar
  39   18   19 2
  40   18   40 1
  41   19   20 1
  42   19   41 1
  43   21   22 ar
  44   21   42 1
  45   22   23 ar
  46   23   24 ar
  47   23   43 1
  48   24   44 1

#	End of record

