#	Name: ASD01200163
#	Creating user name:	WinNT
#	Creation time:	15. 06. 2019 19:08

#	Modifying user name:	WinNT
#	Modification time:	15. 06. 2019 19:08

#	Program:	/corina/corina34_cracker 3.40 0067  02.08.2006

@<TRIPOS>MOLECULE
ASD01200163
  57   59    0    0    0
SMALL
NO_CHARGES


@<TRIPOS>ATOM
   1 C1            -0.0160     1.3214     0.0129 C.ar    
   2 N2            -1.1616     1.9878     0.0288 N.ar    
   3 C3            -2.3223     1.3664     0.0395 C.ar    
   4 C4            -2.3795    -0.0286     0.0345 C.ar    
   5 C5            -1.1814    -0.7591     0.0177 C.ar    
   6 C6             0.0025    -0.0712     0.0017 C.ar    
   7 N7             1.1837     2.0223     0.0016 N.am    
   8 C8             1.1779     3.3667    -0.0928 C.2     
   9 C9             2.4701     4.1350     0.0121 C.3     
  10 S10            2.1333     5.9099    -0.1530 S.3     
  11 C11            3.7811     6.6535    -0.0028 C.3     
  12 O12            0.1328     3.9581    -0.2622 O.2     
  13 N13            3.7516     8.0477    -0.4640 N.am    
  14 C14            4.1048     8.8228     0.5786 C.2     
  15 C15            4.3783     7.9891     1.7537 C.2     
  16 C16            4.1980     6.7080     1.4486 C.2     
  17 C17            4.3756     5.5325     2.3748 C.3     
  18 C18            4.8008     8.5070     3.1043 C.3     
  19 O19            4.1853    10.0359     0.5502 O.2     
  20 C20            3.4021     8.5095    -1.8096 C.3     
  21 C21            1.9191     8.7676    -1.8827 C.ar    
  22 C22            1.4204    10.0196    -1.5739 C.ar    
  23 C23            0.0614    10.2587    -1.6401 C.ar    
  24 C24           -0.8031     9.2412    -2.0169 C.ar    
  25 C25           -0.3002     7.9858    -2.3263 C.ar    
  26 C26            1.0601     7.7534    -2.2639 C.ar    
  27 O27           -2.1405     9.4738    -2.0824 O.3     
  28 C28           -2.9706     8.3799    -2.4777 C.3     
  29 C29           -3.6798    -0.7242     0.0470 C.2     
  30 O30           -4.8242    -0.0131     0.0634 O.3     
  31 C31           -6.0668    -0.7640     0.0750 C.3     
  32 O32           -3.7192    -1.9386     0.0424 O.2     
  33 H33           -3.2372     1.9402     0.0527 H       
  34 H34           -1.1928    -1.8390     0.0138 H       
  35 H35            0.9421    -0.6036    -0.0114 H       
  36 H36            2.0254     1.5439     0.0617 H       
  37 H37            2.9305     3.9411     0.9808 H       
  38 H38            3.1466     3.8182    -0.7817 H       
  39 H39            4.5056     6.0811    -0.5820 H       
  40 H40            4.6819     5.8882     3.3585 H       
  41 H41            3.4329     4.9922     2.4610 H       
  42 H42            5.1406     4.8671     1.9746 H       
  43 H43            4.8705     9.5943     3.0709 H       
  44 H44            4.0649     8.2130     3.8527 H       
  45 H45            5.7726     8.0885     3.3662 H       
  46 H46            3.9424     9.4303    -2.0295 H       
  47 H47            3.6743     7.7458    -2.5380 H       
  48 H48            2.0938    10.8113    -1.2803 H       
  49 H49           -0.3277    11.2368    -1.3985 H       
  50 H50           -0.9712     7.1921    -2.6198 H       
  51 H51            1.4521     6.7763    -2.5047 H       
  52 H52           -2.6821     8.0465    -3.4745 H       
  53 H53           -2.8504     7.5587    -1.7710 H       
  54 H54           -4.0125     8.6999    -2.4889 H       
  55 H55           -6.1226    -1.3881    -0.8169 H       
  56 H56           -6.1016    -1.3954     0.9629 H       
  57 H57           -6.9092    -0.0724     0.0879 H       
@<TRIPOS>BOND
   1    1    2 ar
   2    1    7 1
   3    1    6 ar
   4    2    3 ar
   5    3    4 ar
   6    3   33 1
   7    4    5 ar
   8    4   29 1
   9    5    6 ar
  10    5   34 1
  11    6   35 1
  12    7    8 am
  13    7   36 1
  14    8    9 1
  15    8   12 2
  16    9   10 1
  17    9   37 1
  18    9   38 1
  19   10   11 1
  20   11   13 1
  21   11   16 1
  22   11   39 1
  23   13   14 am
  24   13   20 1
  25   14   15 1
  26   14   19 2
  27   15   16 2
  28   15   18 1
  29   16   17 1
  30   17   40 1
  31   17   41 1
  32   17   42 1
  33   18   43 1
  34   18   44 1
  35   18   45 1
  36   20   21 1
  37   20   46 1
  38   20   47 1
  39   21   22 ar
  40   21   26 ar
  41   22   23 ar
  42   22   48 1
  43   23   24 ar
  44   23   49 1
  45   24   25 ar
  46   24   27 1
  47   25   26 ar
  48   25   50 1
  49   26   51 1
  50   27   28 1
  51   28   52 1
  52   28   53 1
  53   28   54 1
  54   29   30 1
  55   29   32 2
  56   30   31 1
  57   31   55 1
  58   31   56 1
  59   31   57 1

#	End of record

