#	Name: ASD05740232
#	Creating user name:	WinNT
#	Creation time:	15. 06. 2019 21:03

#	Modifying user name:	WinNT
#	Modification time:	15. 06. 2019 21:03

#	Program:	/corina/corina34_cracker 3.40 0067  02.08.2006

@<TRIPOS>MOLECULE
ASD05740232
  65   70    0    0    0
SMALL
NO_CHARGES


@<TRIPOS>ATOM
   1 C1             1.2633    -1.3047     0.5296 C.3     
   2 N2             0.3825    -0.5891     1.4632 N.3     
   3 C3            -0.9483    -0.9923     1.3061 C.ar    
   4 C4            -1.9418    -0.4321     2.0985 C.ar    
   5 C5            -3.2548    -0.8300     1.9435 C.ar    
   6 C6            -3.5819    -1.7908     0.9957 C.ar    
   7 C7            -2.5885    -2.3514     0.2037 C.ar    
   8 C8            -1.2763    -1.9487     0.3540 C.ar    
   9 N9            -4.9139    -2.1948     0.8388 N.pl3   
  10 C10           -5.9377    -1.2868     1.0265 C.ar    
  11 N11           -5.6306    -0.0350     1.3485 N.ar    
  12 N12           -7.1885    -1.6960     0.8732 N.ar    
  13 C13           -8.1967    -0.8510     1.0456 C.ar    
  14 C14           -7.9085     0.4870     1.3941 C.ar    
  15 C15           -6.5711     0.8728     1.5391 C.ar    
  16 N16           -9.5012    -1.2443     0.8937 N.am    
  17 C17          -10.5111    -0.3742     1.0718 C.2     
  18 C18          -10.2794     0.9720     1.4197 C.2     
  19 C19           -9.0096     1.4258     1.5864 C.2     
  20 C20           -9.7994    -2.6322     0.5316 C.3     
  21 O21          -11.6582    -0.7601     0.9282 O.2     
  22 C22           -9.8048    -3.4853     1.7739 C.ar    
  23 C23           -8.8759    -4.5168     1.9182 C.ar    
  24 C24            0.8287    -0.7747     2.8510 C.3     
  25 C25            2.2587    -0.2496     2.9988 C.3     
  26 N26            3.1396    -0.9652     2.0652 N.3     
  27 C27            2.6933    -0.7796     0.6774 C.3     
  28 C28           -8.8871    -5.3021     3.0718 C.ar    
  29 C29           -9.8150    -5.0555     4.0629 C.ar    
  30 C30          -10.7338    -4.0323     3.9159 C.ar    
  31 C31          -10.7256    -3.2447     2.7754 C.ar    
  32 C32           -7.8843    -4.7769     0.8530 C.2     
  33 F33          -11.6258    -2.2466     2.6385 F       
  34 S34           -8.2615    -5.0282    -0.8464 S.3     
  35 C35           -6.5568    -5.2328    -1.2267 C.2     
  36 C36           -5.8276    -5.1082    -0.1140 C.2     
  37 C37           -6.5506    -4.8524     1.0329 C.2     
  38 C38            4.5365    -0.5419     2.2300 C.3     
  39 H39            1.2424    -2.3710     0.7547 H       
  40 H40            0.9198    -1.1416    -0.4919 H       
  41 H41           -1.6873     0.3146     2.8361 H       
  42 H42           -4.0274    -0.3943     2.5597 H       
  43 H43           -2.8428    -3.0991    -0.5329 H       
  44 H44           -0.5037    -2.3847    -0.2619 H       
  45 H45           -5.1174    -3.1123     0.5985 H       
  46 H46           -6.3142     1.8875     1.8052 H       
  47 H47          -11.1137     1.6445     1.5545 H       
  48 H48           -8.8198     2.4550     1.8532 H       
  49 H49          -10.7776    -2.6808     0.0533 H       
  50 H50           -9.0392    -2.9992    -0.1579 H       
  51 H51            0.1684    -0.2253     3.5219 H       
  52 H52            0.8029    -1.8350     3.1025 H       
  53 H53            2.2796     0.8167     2.7736 H       
  54 H54            2.6023    -0.4127     4.0203 H       
  55 H55            3.3536    -1.3290     0.0064 H       
  56 H56            2.7191     0.2807     0.4258 H       
  57 H57           -8.1707    -6.1019     3.1886 H       
  58 H58           -9.8241    -5.6633     4.9556 H       
  59 H59          -11.4579    -3.8436     4.6946 H       
  60 H60           -6.1591    -5.4295    -2.2114 H       
  61 H61           -4.7513    -5.1976    -0.1131 H       
  62 H62           -6.0852    -4.7296     1.9997 H       
  63 H63            4.8622    -0.7524     3.2487 H       
  64 H64            5.1667    -1.0869     1.5272 H       
  65 H65            4.6173     0.5277     2.0365 H       
@<TRIPOS>BOND
   1    1    2 1
   2    1   27 1
   3    1   39 1
   4    1   40 1
   5    2    3 1
   6    2   24 1
   7    3    4 ar
   8    3    8 ar
   9    4    5 ar
  10    4   41 1
  11    5    6 ar
  12    5   42 1
  13    6    7 ar
  14    6    9 1
  15    7    8 ar
  16    7   43 1
  17    8   44 1
  18    9   10 1
  19    9   45 1
  20   10   11 ar
  21   10   12 ar
  22   11   15 ar
  23   12   13 ar
  24   13   14 ar
  25   13   16 1
  26   14   15 ar
  27   14   19 1
  28   15   46 1
  29   16   17 am
  30   16   20 1
  31   17   18 1
  32   17   21 2
  33   18   19 2
  34   18   47 1
  35   19   48 1
  36   20   22 1
  37   20   49 1
  38   20   50 1
  39   22   23 ar
  40   22   31 ar
  41   23   28 ar
  42   23   32 1
  43   24   25 1
  44   24   51 1
  45   24   52 1
  46   25   26 1
  47   25   53 1
  48   25   54 1
  49   26   27 1
  50   26   38 1
  51   27   55 1
  52   27   56 1
  53   28   29 ar
  54   28   57 1
  55   29   30 ar
  56   29   58 1
  57   30   31 ar
  58   30   59 1
  59   31   33 1
  60   32   34 1
  61   32   37 2
  62   34   35 1
  63   35   36 2
  64   35   60 1
  65   36   37 1
  66   36   61 1
  67   37   62 1
  68   38   63 1
  69   38   64 1
  70   38   65 1

#	End of record

