#	Name: ASD01940529
#	Creating user name:	WinNT
#	Creation time:	15. 06. 2019 20:12

#	Modifying user name:	WinNT
#	Modification time:	15. 06. 2019 20:12

#	Program:	/corina/corina34_cracker 3.40 0067  02.08.2006

@<TRIPOS>MOLECULE
ASD01940529
  54   56    0    0    0
SMALL
NO_CHARGES


@<TRIPOS>ATOM
   1 N1            -0.0179     1.4664     0.0101 N.pl3   
   2 C2             0.0021    -0.0041     0.0020 C.3     
   3 C3             1.3732     0.0647     0.6886 C.3     
   4 C4             1.4523     1.4322    -0.0041 C.3     
   5 N5             1.3099     0.1349     2.1546 N.3     
   6 C6            -0.6218     3.8163     0.0259 C.2     
   7 C7            -0.9933     2.4514     0.0204 C.2     
   8 N8            -1.6033     4.7706     0.0351 N.pl3   
   9 N9            -2.2699     2.1172     0.0245 N.2     
  10 C10           -3.2292     3.0399     0.0339 C.2     
  11 C11           -2.9199     4.3829     0.0392 C.2     
  12 N12           -0.9305     5.9966     0.0386 N.2     
  13 N13            0.3329     5.7316     0.0318 N.2     
  14 N14            0.5325     4.4609     0.0292 N.2     
  15 C15           -3.9902     5.3908     0.0495 C.2     
  16 C16           -4.8809     5.5836     1.0617 C.2     
  17 C17           -5.7911     6.5936     0.8349 C.2     
  18 C18           -5.6608     7.2245    -0.3358 C.2     
  19 S19           -4.3164     6.5416    -1.2400 S.3     
  20 C20            2.5434    -0.3843     2.7603 C.3     
  21 H21           -0.7729    -0.4521     0.6240 H       
  22 H22            0.0392    -0.4322    -0.9997 H       
  23 H23            2.0944    -0.6651     0.3207 H       
  24 H24            1.8758     1.3866    -1.0075 H       
  25 H25            1.9105     2.2053     0.6126 H       
  26 H26            1.1240     1.0772     2.4638 H       
  27 H27           -4.2643     2.7318     0.0371 H       
  28 H28           -4.8749     4.9938     1.9664 H       
  29 H29           -6.5551     6.8559     1.5518 H       
  30 H30           -6.2865     8.0369    -0.6749 H       
  31 H31            2.6828    -1.4244     2.4659 H       
  32 H32            3.3928     0.2071     2.4184 H       
  33 H33            2.4698    -0.3206     3.8459 H       
  34 C34            9.5643    18.6259    10.8700 C.2     
  35 C35            9.5847    17.1191    10.8617 C.3     
  36 C36           11.0339    16.6287    10.8453 C.3     
  37 O37           11.6898    17.1205     9.6748 O.3     
  38 C38           11.7491    17.1341    12.0717 C.2     
  39 C39           11.0547    15.0989    10.8369 C.3     
  40 C40           12.4779    14.6152    10.9445 C.2     
  41 O41           10.6023    19.2442    10.8634 O.2     
  42 O42            8.3928    19.2812    10.8791 O.3     
  43 O43           12.7209    17.8426    11.9553 O.2     
  44 O44           11.3067    16.7971    13.2933 O.3     
  45 O45           13.3827    15.4123    11.0202 O.2     
  46 O46           12.7403    13.2989    10.9563 O.3     
  47 H47            9.0844    16.7440    11.7545 H       
  48 H48            9.0674    16.7535     9.9747 H       
  49 H49           11.2823    16.8341     8.8459 H       
  50 H50           10.4783    14.7231    11.6822 H       
  51 H51           10.6164    14.7347     9.9076 H       
  52 H52            8.4303    20.2474    10.8842 H       
  53 H53           11.7981    17.1454    14.0498 H       
  54 H54           13.6684    13.0369    11.0269 H       
@<TRIPOS>BOND
   1    1    2 1
   2    1    4 1
   3    1    7 1
   4    2    3 1
   5    2   21 1
   6    2   22 1
   7    3    4 1
   8    3    5 1
   9    3   23 1
  10    4   24 1
  11    4   25 1
  12    5   20 1
  13    5   26 1
  14    6    7 1
  15    6    8 1
  16    6   14 2
  17    7    9 2
  18    8   11 1
  19    8   12 1
  20    9   10 1
  21   10   11 2
  22   10   27 1
  23   11   15 1
  24   12   13 2
  25   13   14 1
  26   15   16 2
  27   15   19 1
  28   16   17 1
  29   16   28 1
  30   17   18 2
  31   17   29 1
  32   18   19 1
  33   18   30 1
  34   20   31 1
  35   20   32 1
  36   20   33 1
  37   34   35 1
  38   34   41 2
  39   34   42 1
  40   35   36 1
  41   35   47 1
  42   35   48 1
  43   36   37 1
  44   36   38 1
  45   36   39 1
  46   37   49 1
  47   38   43 2
  48   38   44 1
  49   39   40 1
  50   39   50 1
  51   39   51 1
  52   40   45 2
  53   40   46 1
  54   42   52 1
  55   44   53 1
  56   46   54 1

#	End of record

