#	Name: ASD01813893
#	Creating user name:	WinNT
#	Creation time:	15. 06. 2019 19:31

#	Modifying user name:	WinNT
#	Modification time:	15. 06. 2019 19:31

#	Program:	/corina/corina34_cracker 3.40 0067  02.08.2006

@<TRIPOS>MOLECULE
ASD01813893
  46   49    0    0    0
SMALL
NO_CHARGES


@<TRIPOS>ATOM
   1 C1            -0.6300     0.4415     0.2970 C.2     
   2 C2            -0.3555    -0.9327     0.2992 C.2     
   3 C3             0.9373    -1.3594     0.2117 C.2     
   4 C4             1.9720    -0.4135     0.1209 C.2     
   5 N5             1.6752     0.9224     0.1214 N.am    
   6 C6             0.3793     1.3370     0.2089 C.2     
   7 C7             3.3014    -0.8494     0.0310 C.2     
   8 C8             4.3141     0.0611    -0.0571 C.2     
   9 C9             4.0052     1.4341    -0.0569 C.2     
  10 C10            2.6585     1.8409     0.0351 C.2     
  11 O11            2.3816     3.0285     0.0355 O.2     
  12 C12            5.0735     2.4316    -0.1501 C.2     
  13 O13            4.7707     3.7461    -0.1494 O.3     
  14 O14            6.2337     2.0747    -0.2281 O.2     
  15 C15            3.6124    -2.3240     0.0323 C.3     
  16 N16            3.7308    -2.8007    -1.3521 N.3     
  17 C17            4.2636    -4.1696    -1.3940 C.3     
  18 C18            4.2967    -4.6571    -2.8444 C.3     
  19 N19            5.1273    -3.7471    -3.6455 N.3     
  20 C20            4.5946    -2.3781    -3.6036 C.3     
  21 C21            4.5614    -1.8907    -2.1532 C.3     
  22 C22            5.2395    -4.1984    -4.9563 C.2     
  23 C23            6.4270    -4.0877    -5.8000 C.2     
  24 N24            6.1627    -4.6168    -6.9558 N.2     
  25 O25            4.8265    -5.0865    -6.9256 O.3     
  26 N26            4.3031    -4.7983    -5.6407 N.2     
  27 C27            7.7382    -3.4637    -5.3967 C.3     
  28 H28           -1.6514     0.7864     0.3614 H       
  29 H29           -1.1612    -1.6485     0.3699 H       
  30 H30            1.1635    -2.4155     0.2126 H       
  31 H31            0.1563     2.3937     0.2084 H       
  32 H32            5.3404    -0.2680    -0.1259 H       
  33 H33            5.5096     4.3668    -0.2127 H       
  34 H34            4.5516    -2.4968     0.5577 H       
  35 H35            2.8101    -2.8641     0.5351 H       
  36 H36            5.2734    -4.1796    -0.9839 H       
  37 H37            3.6246    -4.8267    -0.8041 H       
  38 H38            4.7185    -5.6615    -2.8810 H       
  39 H39            3.2835    -4.6730    -3.2460 H       
  40 H40            5.2335    -1.7211    -4.1936 H       
  41 H41            3.5847    -2.3682    -4.0138 H       
  42 H42            4.1396    -0.8863    -2.1167 H       
  43 H43            5.5746    -1.8747    -1.7516 H       
  44 H44            8.3469    -4.2024    -4.8753 H       
  45 H45            8.2661    -3.1205    -6.2864 H       
  46 H46            7.5498    -2.6170    -4.7367 H       
@<TRIPOS>BOND
   1    1    2 1
   2    1    6 2
   3    1   28 1
   4    2    3 2
   5    2   29 1
   6    3    4 1
   7    3   30 1
   8    4    5 1
   9    4    7 2
  10    5    6 1
  11    5   10 am
  12    6   31 1
  13    7    8 1
  14    7   15 1
  15    8    9 2
  16    8   32 1
  17    9   10 1
  18    9   12 1
  19   10   11 2
  20   12   13 1
  21   12   14 2
  22   13   33 1
  23   15   16 1
  24   15   34 1
  25   15   35 1
  26   16   17 1
  27   16   21 1
  28   17   18 1
  29   17   36 1
  30   17   37 1
  31   18   19 1
  32   18   38 1
  33   18   39 1
  34   19   20 1
  35   19   22 1
  36   20   21 1
  37   20   40 1
  38   20   41 1
  39   21   42 1
  40   21   43 1
  41   22   23 1
  42   22   26 2
  43   23   24 2
  44   23   27 1
  45   24   25 1
  46   25   26 1
  47   27   44 1
  48   27   45 1
  49   27   46 1

#	End of record

