#	Name: ASD04880164
#	Creating user name:	WinNT
#	Creation time:	15. 06. 2019 20:52

#	Modifying user name:	WinNT
#	Modification time:	15. 06. 2019 20:52

#	Program:	/corina/corina34_cracker 3.40 0067  02.08.2006

@<TRIPOS>MOLECULE
ASD04880164
  49   51    0    0    0
SMALL
NO_CHARGES


@<TRIPOS>ATOM
   1 C1            -0.0144     1.2121     0.0087 C.2     
   2 O2             0.0564    -0.0019    -0.0145 O.2     
   3 C3             1.2176     2.0237    -0.0196 C.ar    
   4 C4             2.4668     1.4039     0.0724 C.ar    
   5 C5             3.6171     2.1682     0.0449 C.ar    
   6 C6             3.5303     3.5544    -0.0743 C.ar    
   7 C7             2.2892     4.1700    -0.1657 C.ar    
   8 C8             1.1380     3.4131    -0.1443 C.ar    
   9 O9             4.8344     1.5683     0.1347 O.3     
  10 N10           -1.2184     1.8161     0.0546 N.am    
  11 N11           -1.4333     3.1854     0.1971 N.2     
  12 C12           -2.6764     3.5241     0.2142 C.2     
  13 C13           -3.5381     2.2902     0.0697 C.3     
  14 C14           -2.5206     1.1378    -0.0439 C.3     
  15 C15           -3.1807     4.9023     0.3537 C.ar    
  16 C16           -2.2843     5.9667     0.4807 C.ar    
  17 C17           -2.7626     7.2570     0.6107 C.ar    
  18 C18           -4.1354     7.4941     0.6150 C.ar    
  19 C19           -5.0258     6.4376     0.4889 C.ar    
  20 C20           -4.5561     5.1482     0.3535 C.ar    
  21 O21           -4.6038     8.7638     0.7434 O.3     
  22 C22           -6.0224     8.9354     0.7400 C.3     
  23 O23           -1.8930     8.2952     0.7349 O.3     
  24 C24           -0.4994     7.9791     0.7230 C.3     
  25 C25            4.8487     0.1445     0.2553 C.3     
  26 O26            4.6621     4.3044    -0.1007 O.3     
  27 C27            4.5004     5.7188    -0.2247 C.3     
  28 H28            2.5326     0.3299     0.1651 H       
  29 H29            2.2261     5.2442    -0.2580 H       
  30 H30            0.1740     3.8942    -0.2200 H       
  31 H31           -4.1713     2.1610     0.9475 H       
  32 H32           -4.1440     2.3508    -0.8344 H       
  33 H33           -2.6175     0.6312    -1.0042 H       
  34 H34           -2.6490     0.4329     0.7775 H       
  35 H35           -1.2203     5.7815     0.4776 H       
  36 H36           -6.0892     6.6260     0.4931 H       
  37 H37           -5.2514     4.3281     0.2514 H       
  38 H38           -6.4579     8.3774     1.5688 H       
  39 H39           -6.2607     9.9934     0.8493 H       
  40 H40           -6.4308     8.5664    -0.2009 H       
  41 H41           -0.2724     7.3063     1.5500 H       
  42 H42           -0.2447     7.4949    -0.2197 H       
  43 H43            0.0818     8.8951     0.8297 H       
  44 H44            4.3673    -0.2988    -0.6164 H       
  45 H45            5.8794    -0.2045     0.3178 H       
  46 H46            4.3103    -0.1493     1.1563 H       
  47 H47            3.9204     6.0935     0.6186 H       
  48 H48            5.4798     6.1971    -0.2332 H       
  49 H49            3.9777     5.9446    -1.1542 H       
@<TRIPOS>BOND
   1    1    2 2
   2    1    3 1
   3    1   10 am
   4    3    4 ar
   5    3    8 ar
   6    4    5 ar
   7    4   28 1
   8    5    6 ar
   9    5    9 1
  10    6    7 ar
  11    6   26 1
  12    7    8 ar
  13    7   29 1
  14    8   30 1
  15    9   25 1
  16   10   11 1
  17   10   14 1
  18   11   12 2
  19   12   13 1
  20   12   15 1
  21   13   14 1
  22   13   31 1
  23   13   32 1
  24   14   33 1
  25   14   34 1
  26   15   16 ar
  27   15   20 ar
  28   16   17 ar
  29   16   35 1
  30   17   18 ar
  31   17   23 1
  32   18   19 ar
  33   18   21 1
  34   19   20 ar
  35   19   36 1
  36   20   37 1
  37   21   22 1
  38   22   38 1
  39   22   39 1
  40   22   40 1
  41   23   24 1
  42   24   41 1
  43   24   42 1
  44   24   43 1
  45   25   44 1
  46   25   45 1
  47   25   46 1
  48   26   27 1
  49   27   47 1
  50   27   48 1
  51   27   49 1

#	End of record

