#	Name: ASD01351019
#	Creating user name:	WinNT
#	Creation time:	15. 06. 2019 19:16

#	Modifying user name:	WinNT
#	Modification time:	15. 06. 2019 19:16

#	Program:	/corina/corina34_cracker 3.40 0067  02.08.2006

@<TRIPOS>MOLECULE
ASD01351019
  49   51    0    0    0
SMALL
NO_CHARGES


@<TRIPOS>ATOM
   1 C1            -0.0167     1.3781     0.0096 C.ar    
   2 C2            -1.3319     2.1138     0.0199 C.3     
   3 C3             0.0021    -0.0041     0.0020 C.ar    
   4 C4             1.1709     2.0855     0.0021 C.ar    
   5 C5            -1.6518     2.5796    -1.3764 C.ar    
   6 N6            -1.2400     3.2566     0.9340 N.3     
   7 C7             1.2084    -0.6789    -0.0132 C.ar    
   8 C8             2.3773     1.4107    -0.0131 C.ar    
   9 C9            -2.1625     3.8361    -1.6250 C.ar    
  10 C10           -1.4215     1.7092    -2.4315 C.ar    
  11 C11           -2.4490     4.0894     0.8318 C.3     
  12 C12            2.3960     0.0285    -0.0212 C.ar    
  13 C13           -2.4234     4.8184    -0.5121 C.3     
  14 C14           -2.4462     4.2208    -2.9261 C.ar    
  15 C15           -1.7024     2.0928    -3.7274 C.ar    
  16 C16           -2.2175     3.3523    -3.9765 C.ar    
  17 H17           -1.0919     2.9491     1.8835 H       
  18 Cl18          -2.5749     3.8406    -5.6036 Cl      
  19 C19           -6.4031    -0.5231     5.2218 C.3     
  20 C20           -6.3288     0.1270     3.8387 C.3     
  21 C21           -5.0851     1.0144     3.7584 C.3     
  22 C22           -5.0108     1.6644     2.3754 C.3     
  23 C23           -3.7671     2.5519     2.2951 C.3     
  24 C24           -3.6928     3.2019     0.9121 C.3     
  25 H25           -2.1173     1.4406     0.3634 H       
  26 H26           -0.9258    -0.5567     0.0083 H       
  27 H27            1.1563     3.1654     0.0077 H       
  28 H28            1.2231    -1.7588    -0.0184 H       
  29 H29            3.3051     1.9634    -0.0197 H       
  30 H30           -1.0197     0.7256    -2.2380 H       
  31 H31           -2.4638     4.8149     1.6451 H       
  32 H32            3.3385    -0.4987    -0.0327 H       
  33 H33           -1.6345     5.5705    -0.5009 H       
  34 H34           -3.3840     5.3061    -0.6777 H       
  35 H35           -2.8484     5.2042    -3.1200 H       
  36 H36           -1.5201     1.4113    -4.5451 H       
  37 H37           -5.5127    -1.1297     5.3864 H       
  38 H38           -6.4605     0.2528     5.9853 H       
  39 H39           -7.2892    -1.1553     5.2790 H       
  40 H40           -6.2715    -0.6489     3.0752 H       
  41 H41           -7.2193     0.7336     3.6741 H       
  42 H42           -5.1424     1.7902     4.5219 H       
  43 H43           -4.1946     0.4077     3.9231 H       
  44 H44           -4.9535     0.8886     1.6119 H       
  45 H45           -5.9013     2.2711     2.2107 H       
  46 H46           -3.8244     3.3277     3.0586 H       
  47 H47           -2.8766     1.9452     2.4597 H       
  48 H48           -4.5832     3.8086     0.7474 H       
  49 H49           -3.6354     2.4261     0.1486 H       
@<TRIPOS>BOND
   1    1    3 ar
   2    1    4 ar
   3    1    2 1
   4    2    5 1
   5    2    6 1
   6    2   25 1
   7    3    7 ar
   8    3   26 1
   9    4    8 ar
  10    4   27 1
  11    5    9 ar
  12    5   10 ar
  13    6   11 1
  14    6   17 1
  15    7   12 ar
  16    7   28 1
  17    8   12 ar
  18    8   29 1
  19    9   13 1
  20    9   14 ar
  21   10   15 ar
  22   10   30 1
  23   11   24 1
  24   11   13 1
  25   11   31 1
  26   12   32 1
  27   13   33 1
  28   13   34 1
  29   14   16 ar
  30   14   35 1
  31   15   16 ar
  32   15   36 1
  33   16   18 1
  34   19   20 1
  35   19   37 1
  36   19   38 1
  37   19   39 1
  38   20   21 1
  39   20   40 1
  40   20   41 1
  41   21   22 1
  42   21   42 1
  43   21   43 1
  44   22   23 1
  45   22   44 1
  46   22   45 1
  47   23   24 1
  48   23   46 1
  49   23   47 1
  50   24   48 1
  51   24   49 1

#	End of record

