#	Name: ASD08150974
#	Creating user name:	WinNT
#	Creation time:	15. 06. 2019 21:16

#	Modifying user name:	WinNT
#	Modification time:	15. 06. 2019 21:16

#	Program:	/corina/corina34_cracker 3.40 0067  02.08.2006

@<TRIPOS>MOLECULE
ASD08150974
  64   69    0    0    0
SMALL
NO_CHARGES


@<TRIPOS>ATOM
   1 N1             0.0891     1.3962    -0.4637 N.2     
   2 C2             0.1393     0.0993    -0.5602 C.2     
   3 N3             1.4363    -0.3115    -0.6455 N.pl3   
   4 C4             2.2267     0.8090    -0.5977 C.ar    
   5 N5             3.5353     1.0367    -0.6374 N.ar    
   6 C6             4.0050     2.2646    -0.5685 C.ar    
   7 N7             3.2183     3.3193    -0.4577 N.ar    
   8 C8             1.8964     3.1900    -0.4103 C.ar    
   9 C9             1.3471     1.8987    -0.4809 C.ar    
  10 N10            1.0800     4.3013    -0.2936 N.pl3   
  11 C11            1.6709     5.6399    -0.2209 C.3     
  12 C12            2.0201     6.1205    -1.6309 C.3     
  13 N13            0.6284     9.6625     2.3494 N.ar    
  14 C14           -0.2266    10.4933     2.8948 C.ar    
  15 C15           -1.6024    10.2948     2.8010 C.ar    
  16 C16           -2.0903     9.2117     2.1270 C.ar    
  17 C17           -1.1687     8.3222     1.5429 C.ar    
  18 C18           -1.5979     7.1874     0.8344 C.ar    
  19 C19           -0.6805     6.3456     0.2800 C.ar    
  20 C20            0.6836     6.5916     0.4041 C.ar    
  21 C21            1.1430     7.6939     1.0913 C.ar    
  22 C22            0.2168     8.5844     1.6768 C.ar    
  23 N23            2.5135     7.9281     1.2083 N.3     
  24 C24            2.9410     7.8617     2.6122 C.3     
  25 C25            4.4696     7.9428     2.6815 C.3     
  26 N26            4.9072     9.1440     1.9544 N.am    
  27 C27            4.4080     9.3497     0.5863 C.3     
  28 C28            2.8817     9.2132     0.5994 C.3     
  29 C29            5.7432    10.0329     2.5266 C.2     
  30 O30            6.1459     9.8471     3.6590 O.2     
  31 O31            6.3273    13.2165     0.9252 O.3     
  32 N32            7.2791    12.6239     0.4794 N.2     
  33 C33            7.3363    11.3949     0.8996 C.2     
  34 C34            6.1693    11.2303     1.7801 C.2     
  35 C35            5.5744    12.4675     1.7341 C.2     
  36 C36            4.3215    12.8947     2.4543 C.3     
  37 C37            8.3762    10.3594     0.5573 C.3     
  38 Cl38          -3.2940     6.8578     0.6659 Cl      
  39 H39           -0.7199    -0.5549    -0.5708 H       
  40 H40            1.7440    -1.2279    -0.7251 H       
  41 H41            5.0740     2.4149    -0.6036 H       
  42 H42            0.1165     4.1940    -0.2600 H       
  43 H43            2.5759     5.6051     0.3856 H       
  44 H44            1.1326     6.0711    -2.2618 H       
  45 H45            2.3771     7.1494    -1.5860 H       
  46 H46            2.7993     5.4835    -2.0493 H       
  47 H47            0.1453    11.3538     3.4310 H       
  48 H48           -2.2824    10.9965     3.2610 H       
  49 H49           -3.1537     9.0422     2.0447 H       
  50 H50           -1.0170     5.4750    -0.2633 H       
  51 H51            2.5070     8.6953     3.1643 H       
  52 H52            2.6064     6.9213     3.0502 H       
  53 H53            4.7859     8.0095     3.7225 H       
  54 H54            4.9047     7.0565     2.2198 H       
  55 H55            4.6835    10.3466     0.2420 H       
  56 H56            4.8371     8.5986    -0.0769 H       
  57 H57            2.5042     9.2530    -0.4224 H       
  58 H58            2.4487    10.0280     1.1796 H       
  59 H59            4.1035    13.9361     2.2176 H       
  60 H60            3.4882    12.2678     2.1369 H       
  61 H61            4.4666    12.7892     3.5295 H       
  62 H62            9.1914    10.4106     1.2791 H       
  63 H63            7.9253     9.3675     0.5883 H       
  64 H64            8.7642    10.5510    -0.4431 H       
@<TRIPOS>BOND
   1    1    2 2
   2    1    9 1
   3    2    3 1
   4    2   39 1
   5    3    4 1
   6    3   40 1
   7    4    5 ar
   8    4    9 ar
   9    5    6 ar
  10    6    7 ar
  11    6   41 1
  12    7    8 ar
  13    8    9 ar
  14    8   10 1
  15   10   11 1
  16   10   42 1
  17   11   12 1
  18   11   20 1
  19   11   43 1
  20   12   44 1
  21   12   45 1
  22   12   46 1
  23   13   14 ar
  24   13   22 ar
  25   14   15 ar
  26   14   47 1
  27   15   16 ar
  28   15   48 1
  29   16   17 ar
  30   16   49 1
  31   17   18 ar
  32   17   22 ar
  33   18   19 ar
  34   18   38 1
  35   19   20 ar
  36   19   50 1
  37   20   21 ar
  38   21   22 ar
  39   21   23 1
  40   23   24 1
  41   23   28 1
  42   24   25 1
  43   24   51 1
  44   24   52 1
  45   25   26 1
  46   25   53 1
  47   25   54 1
  48   26   27 1
  49   26   29 am
  50   27   28 1
  51   27   55 1
  52   27   56 1
  53   28   57 1
  54   28   58 1
  55   29   30 2
  56   29   34 1
  57   31   32 1
  58   31   35 1
  59   32   33 2
  60   33   34 1
  61   33   37 1
  62   34   35 2
  63   35   36 1
  64   36   59 1
  65   36   60 1
  66   36   61 1
  67   37   62 1
  68   37   63 1
  69   37   64 1

#	End of record

