#	Name: ASD05300027
#	Creating user name:	WinNT
#	Creation time:	15. 06. 2019 20:58

#	Modifying user name:	WinNT
#	Modification time:	15. 06. 2019 20:58

#	Program:	/corina/corina34_cracker 3.40 0067  02.08.2006

@<TRIPOS>MOLECULE
ASD05300027
  32   34    0    0    0
SMALL
NO_CHARGES


@<TRIPOS>ATOM
   1 N1            -0.0169     1.3938     0.0097 N.3     
   2 C2             0.0021    -0.0041     0.0020 C.2     
   3 C3             1.1657    -0.5683    -0.0121 C.2     
   4 C4             1.3944    -2.0169    -0.0484 C.2     
   5 C5             2.3918    -2.5513     0.6237 C.2     
   6 C6             2.6374    -4.0016     0.5483 C.2     
   7 C7             1.8648    -4.7622    -0.1978 C.2     
   8 C8             0.7424    -4.1657    -0.9423 C.2     
   9 C9             0.5094    -2.8736    -0.8562 C.2     
  10 N10           -0.5727    -2.3343    -1.4589 N.am    
  11 C11           -1.5356    -1.7488    -0.7116 C.2     
  12 C12           -1.2987    -0.6792     0.0166 C.2     
  13 C13           -2.3728    -0.1260     0.8702 C.2     
  14 C14           -3.5679    -0.6700     0.8740 C.2     
  15 C15           -3.8438    -1.8397     0.0221 C.2     
  16 C16           -2.8858    -2.3496    -0.7196 C.2     
  17 C17           -0.6920    -2.3794    -2.8006 C.2     
  18 O18           -1.6643    -1.8946    -3.3396 O.2     
  19 N19            0.2693    -2.9631    -3.5433 N.am    
  20 H20            0.9201     1.7682     0.0028 H       
  21 H21           -0.5553     1.7524    -0.7646 H       
  22 H22            2.0333     0.0746     0.0036 H       
  23 H23            3.0299    -1.9263     1.2308 H       
  24 H24            3.4519    -4.4409     1.1051 H       
  25 H25            2.0539    -5.8234    -0.2644 H       
  26 H26            0.1111    -4.7886    -1.5585 H       
  27 H27           -2.1724     0.7316     1.4953 H       
  28 H28           -4.3467    -0.2610     1.5004 H       
  29 H29           -4.8296    -2.2809     0.0096 H       
  30 H30           -3.0893    -3.2068    -1.3443 H       
  31 H31            1.0469    -3.3508    -3.1122 H       
  32 H32            0.1835    -2.9956    -4.5090 H       
@<TRIPOS>BOND
   1    1    2 1
   2    1   20 1
   3    1   21 1
   4    2    3 2
   5    2   12 1
   6    3    4 1
   7    3   22 1
   8    4    5 2
   9    4    9 1
  10    5    6 1
  11    5   23 1
  12    6    7 2
  13    6   24 1
  14    7    8 1
  15    7   25 1
  16    8    9 2
  17    8   26 1
  18    9   10 1
  19   10   11 1
  20   10   17 am
  21   11   12 2
  22   11   16 1
  23   12   13 1
  24   13   14 2
  25   13   27 1
  26   14   15 1
  27   14   28 1
  28   15   16 2
  29   15   29 1
  30   16   30 1
  31   17   18 2
  32   17   19 am
  33   19   31 1
  34   19   32 1

#	End of record

