#	Name: ASD01816308
#	Creating user name:	WinNT
#	Creation time:	15. 06. 2019 19:35

#	Modifying user name:	WinNT
#	Modification time:	15. 06. 2019 19:35

#	Program:	/corina/corina34_cracker 3.40 0067  02.08.2006

@<TRIPOS>MOLECULE
ASD01816308
  55   60    0    0    0
SMALL
NO_CHARGES


@<TRIPOS>ATOM
   1 C1            -0.0167     1.3813     0.0096 C.ar    
   2 C2             0.0021    -0.0041     0.0020 C.ar    
   3 C3             1.1983    -0.6909    -0.0131 C.ar    
   4 C4             2.4015     0.0060    -0.0209 C.ar    
   5 C5             2.3790     1.4106    -0.0132 C.ar    
   6 C6             1.1663     2.0916     0.0022 C.ar    
   7 N7             3.6052    -0.6771    -0.0356 N.pl3   
   8 C8             4.7970    -0.0584    -0.0432 C.2     
   9 C9             4.9000     1.3104    -0.0369 C.2     
  10 C10            3.6670     2.1303    -0.0217 C.2     
  11 C11            5.9971     2.2731    -0.0413 C.2     
  12 N12            5.4244     3.4961    -0.0297 N.am    
  13 N13            4.0322     3.3798    -0.0182 N.2     
  14 O14            7.1911     2.0232    -0.0528 O.2     
  15 C15            3.5778    -2.1418    -0.0427 C.3     
  16 C16            3.5551    -2.6369    -1.4659 C.ar    
  17 C17            4.7428    -2.8860    -2.1288 C.ar    
  18 C18            4.7252    -3.3394    -3.4333 C.ar    
  19 C19            3.5134    -3.5455    -4.0788 C.ar    
  20 C20            2.3226    -3.2950    -3.4104 C.ar    
  21 C21            2.3466    -2.8466    -2.1042 C.ar    
  22 N22            3.4923    -4.0052    -5.4030 N.pl3   
  23 C23            2.3873    -4.2462    -6.1443 C.2     
  24 C24            2.7936    -4.6752    -7.3616 C.2     
  25 C25            4.1926    -4.6975    -7.3656 C.2     
  26 N26            4.6122    -4.2905    -6.1946 N.2     
  27 C27            6.1214     4.7001    -0.0288 C.ar    
  28 N28            7.4453     4.6802    -0.0454 N.ar    
  29 N29            5.4448     5.8382    -0.0168 N.ar    
  30 C30            6.0762     7.0004    -0.0160 C.ar    
  31 C31            7.4624     7.0166    -0.0279 C.ar    
  32 C32            8.1386     5.8065    -0.0454 C.ar    
  33 C33            9.6452     5.7748    -0.0588 C.3     
  34 C34            5.2984     8.2911    -0.0028 C.3     
  35 H35           -0.9602     1.9068     0.0170 H       
  36 H36           -0.9288    -0.5516     0.0083 H       
  37 H37            1.2004    -1.7708    -0.0186 H       
  38 H38            1.1506     3.1715     0.0077 H       
  39 H39            5.6983    -0.6535    -0.0543 H       
  40 H40            4.4656    -2.5242     0.4609 H       
  41 H41            2.6861    -2.4910     0.4778 H       
  42 H42            5.6851    -2.7255    -1.6262 H       
  43 H43            5.6531    -3.5331    -3.9509 H       
  44 H44            1.3784    -3.4540    -3.9101 H       
  45 H45            1.4206    -2.6516    -1.5838 H       
  46 H46            1.3642    -4.1196    -5.8223 H       
  47 H47            2.1514    -4.9515    -8.1848 H       
  48 H48            4.8186    -4.9950    -8.1939 H       
  49 H49            8.0034     7.9513    -0.0275 H       
  50 H50           10.0174     5.7572     0.9656 H       
  51 H51            9.9852     4.8824    -0.5843 H       
  52 H52           10.0228     6.6619    -0.5674 H       
  53 H53            5.1194     8.5969     1.0280 H       
  54 H54            5.8688     9.0643    -0.5174 H       
  55 H55            4.3444     8.1456    -0.5095 H       
@<TRIPOS>BOND
   1    1    2 ar
   2    1    6 ar
   3    1   35 1
   4    2    3 ar
   5    2   36 1
   6    3    4 ar
   7    3   37 1
   8    4    5 ar
   9    4    7 1
  10    5    6 ar
  11    5   10 1
  12    6   38 1
  13    7    8 1
  14    7   15 1
  15    8    9 2
  16    8   39 1
  17    9   10 1
  18    9   11 1
  19   10   13 2
  20   11   12 am
  21   11   14 2
  22   12   13 1
  23   12   27 1
  24   15   16 1
  25   15   40 1
  26   15   41 1
  27   16   17 ar
  28   16   21 ar
  29   17   18 ar
  30   17   42 1
  31   18   19 ar
  32   18   43 1
  33   19   20 ar
  34   19   22 1
  35   20   21 ar
  36   20   44 1
  37   21   45 1
  38   22   23 1
  39   22   26 1
  40   23   24 2
  41   23   46 1
  42   24   25 1
  43   24   47 1
  44   25   26 2
  45   25   48 1
  46   27   29 ar
  47   27   28 ar
  48   28   32 ar
  49   29   30 ar
  50   30   31 ar
  51   30   34 1
  52   31   32 ar
  53   31   49 1
  54   32   33 1
  55   33   50 1
  56   33   51 1
  57   33   52 1
  58   34   53 1
  59   34   54 1
  60   34   55 1

#	End of record

