#	Name: ASD01884726
#	Creating user name:	WinNT
#	Creation time:	15. 06. 2019 19:48

#	Modifying user name:	WinNT
#	Modification time:	15. 06. 2019 19:48

#	Program:	/corina/corina34_cracker 3.40 0067  02.08.2006

@<TRIPOS>MOLECULE
ASD01884726
  32   34    0    0    0
SMALL
NO_CHARGES


@<TRIPOS>ATOM
   1 F1             0.0021    -0.0041     0.0020 F       
   2 C2            -0.0169     1.3948     0.0097 C.3     
   3 F3             1.2956     1.8790    -0.0002 F       
   4 F4            -0.6935     1.8582    -1.1237 F       
   5 C5            -0.7223     1.8808     1.2496 C.ar    
   6 C6            -2.0911     2.0874     1.2300 C.ar    
   7 C7            -2.7359     2.5337     2.3602 C.ar    
   8 C8            -2.0173     2.7845     3.5418 C.ar    
   9 N9            -2.7265     3.2352     4.6079 N.2     
  10 C10           -2.5772     2.8672     5.8269 C.2     
  11 C11           -1.5282     1.8658     6.2323 C.3     
  12 C12           -0.1741     2.4542     5.9258 C.2     
  13 O13            0.6197     2.6348     6.8248 O.2     
  14 N14            0.1591     2.7785     4.6754 N.am    
  15 C15           -0.6393     2.5703     3.5592 C.ar    
  16 C16           -0.0045     2.1136     2.4030 C.ar    
  17 C17           -3.4569     3.4410     6.8610 C.ar    
  18 C18           -3.3242     3.0710     8.2062 C.ar    
  19 C19           -4.1692     3.6331     9.1408 C.ar    
  20 N20           -5.0909     4.5063     8.7833 N.ar    
  21 C21           -5.2509     4.8831     7.5285 C.ar    
  22 Br22          -6.5958     6.1403     7.0964 Br      
  23 C23           -4.4457     4.3761     6.5278 C.ar    
  24 H24           -2.6527     1.8984     0.3271 H       
  25 H25           -3.8039     2.6932     2.3392 H       
  26 H26           -1.6075     1.6616     7.3000 H       
  27 H27           -1.6641     0.9423     5.6694 H       
  28 H28            1.0257     3.1911     4.5355 H       
  29 H29            1.0622     1.9449     2.4110 H       
  30 H30           -2.5722     2.3565     8.5067 H       
  31 H31           -4.0748     3.3540    10.1798 H       
  32 H32           -4.5787     4.6924     5.5037 H       
@<TRIPOS>BOND
   1    1    2 1
   2    2    3 1
   3    2    4 1
   4    2    5 1
   5    5   16 ar
   6    5    6 ar
   7    6    7 ar
   8    6   24 1
   9    7    8 ar
  10    7   25 1
  11    8   15 ar
  12    8    9 1
  13    9   10 2
  14   10   11 1
  15   10   17 1
  16   11   12 1
  17   11   26 1
  18   11   27 1
  19   12   13 2
  20   12   14 am
  21   14   15 1
  22   14   28 1
  23   15   16 ar
  24   16   29 1
  25   17   23 ar
  26   17   18 ar
  27   18   19 ar
  28   18   30 1
  29   19   20 ar
  30   19   31 1
  31   20   21 ar
  32   21   22 1
  33   21   23 ar
  34   23   32 1

#	End of record

