#	Name: ASD01915970
#	Creating user name:	WinNT
#	Creation time:	15. 06. 2019 20:06

#	Modifying user name:	WinNT
#	Modification time:	15. 06. 2019 20:06

#	Program:	/corina/corina34_cracker 3.40 0067  02.08.2006

@<TRIPOS>MOLECULE
ASD01915970
  30   32    0    0    0
SMALL
NO_CHARGES


@<TRIPOS>ATOM
   1 C1            -0.0167     1.3784     0.0096 C.2     
   2 C2             0.0021    -0.0041     0.0020 C.2     
   3 C3            -1.3079    -0.7738     0.0125 C.3     
   4 C4            -2.3558     0.0516     0.7562 C.3     
   5 N5            -2.3951     1.4407     0.3184 N.am    
   6 C6            -1.2704     2.1349     0.0202 C.2     
   7 O7            -1.3002     3.3282    -0.2190 O.2     
   8 S8             1.6339     1.9584    -0.0030 S.3     
   9 C9             2.2090     0.3472    -0.0182 C.2     
  10 N10            1.2154    -0.4927    -0.0132 N.2     
  11 C11            4.4726     1.0561    -0.0382 C.3     
  12 C12            5.8638     0.4769    -0.0565 C.ar    
  13 C13            6.4887     0.2186    -1.2620 C.ar    
  14 C14            6.5165     0.2096     1.1322 C.ar    
  15 C15            7.7946    -0.3221     1.1150 C.ar    
  16 C16            8.4177    -0.5854    -0.0934 C.ar    
  17 C17            7.7651    -0.3128    -1.2804 C.ar    
  18 O18            3.5151    -0.0046    -0.0343 O.3     
  19 H19           -3.2546     1.8824     0.2347 H       
  20 F20            8.4337    -0.5834     2.2762 F       
  21 H21           -1.6383    -0.9469    -1.0117 H       
  22 H22           -1.1670    -1.7282     0.5197 H       
  23 H23           -3.3362    -0.3961     0.5937 H       
  24 H24           -2.1321     0.0253     1.8227 H       
  25 H25            4.3442     1.6647     0.8569 H       
  26 H26            4.3252     1.6754    -0.9229 H       
  27 H27            5.9795     0.4317    -2.1903 H       
  28 H28            6.0297     0.4156     2.0740 H       
  29 H29            9.4148    -1.0001    -0.1080 H       
  30 H30            8.2506    -0.5183    -2.2229 H       
@<TRIPOS>BOND
   1    1    2 2
   2    1    8 1
   3    1    6 1
   4    2    3 1
   5    2   10 1
   6    3    4 1
   7    3   21 1
   8    3   22 1
   9    4    5 1
  10    4   23 1
  11    4   24 1
  12    5    6 am
  13    5   19 1
  14    6    7 2
  15    8    9 1
  16    9   10 2
  17    9   18 1
  18   11   12 1
  19   11   18 1
  20   11   25 1
  21   11   26 1
  22   12   13 ar
  23   12   14 ar
  24   13   17 ar
  25   13   27 1
  26   14   15 ar
  27   14   28 1
  28   15   16 ar
  29   15   20 1
  30   16   17 ar
  31   16   29 1
  32   17   30 1

#	End of record

