#	Name: ASD08170346
#	Creating user name:	WinNT
#	Creation time:	15. 06. 2019 21:17

#	Modifying user name:	WinNT
#	Modification time:	15. 06. 2019 21:17

#	Program:	/corina/corina34_cracker 3.40 0067  02.08.2006

@<TRIPOS>MOLECULE
ASD08170346
  76   79    0    0    0
SMALL
NO_CHARGES


@<TRIPOS>ATOM
   1 C1            -0.6432     1.3936    -1.6130 C.ar    
   2 C2            -0.6142     0.0268    -1.4171 C.ar    
   3 C3             0.5968    -0.6331    -1.3151 C.ar    
   4 C4             1.7824     0.0727    -1.4084 C.ar    
   5 C5             1.7605     1.4397    -1.6038 C.ar    
   6 C6             0.5458     2.1055    -1.7075 C.ar    
   7 C7             0.6246    -2.1246    -1.1014 C.3     
   8 C8             0.6426    -2.8231    -2.4366 C.2     
   9 N9             0.6686    -4.1695    -2.4925 N.am    
  10 C10            0.6851    -4.8141    -3.7247 C.2     
  11 S11            0.7184    -6.5101    -3.9640 S.3     
  12 C12            0.7193    -6.2440    -5.7077 C.2     
  13 N13            0.6956    -4.9650    -5.9112 N.2     
  14 N14            0.6723    -4.2302    -4.8849 N.2     
  15 O15            0.6337    -2.1737    -3.4609 O.2     
  16 C16            0.7439    -7.3127    -6.7700 C.3     
  17 C17            2.1944    -7.6462    -7.1244 C.3     
  18 C18            3.9978    -9.1876    -8.6844 C.3     
  19 C19            4.1950   -10.2623    -9.7554 C.3     
  20 C20            5.6686   -10.4741    -9.9892 C.2     
  21 N21            6.4187   -11.3213    -9.3611 N.2     
  22 S22            6.6284    -9.6393   -11.1352 S.3     
  23 C23            7.9974   -10.5385   -10.6363 C.2     
  24 N24            7.6363   -11.3543    -9.6988 N.2     
  25 C25            9.3892   -10.4061   -11.1988 C.3     
  26 C26            9.5549   -11.3548   -12.3579 C.2     
  27 O27            8.6376   -12.0653   -12.6926 O.2     
  28 C28           10.8655   -11.4171   -13.0992 C.3     
  29 C29           10.7694   -12.4368   -14.2046 C.ar    
  30 C30           10.3408   -12.0529   -15.4621 C.ar    
  31 C31           11.1155   -13.7533   -13.9607 C.ar    
  32 C32           11.0287   -14.6903   -14.9715 C.ar    
  33 C33           10.5931   -14.3092   -16.2343 C.ar    
  34 C34           10.2516   -12.9848   -16.4773 C.ar    
  35 N35           10.5041   -15.2543   -17.2588 N.pl3   
  36 C36           10.9915   -16.6186   -17.0412 C.3     
  37 N37            0.5200     3.4880    -1.9052 N.pl3   
  38 C38            1.7681     4.2547    -1.8814 C.3     
  39 S39            2.2240    -8.9327    -8.4030 S.3     
  40 C40            9.9233   -14.8814   -18.5510 C.3     
  41 C41           -0.7551     4.1712    -2.1362 C.3     
  42 H42           -1.5893     1.9076    -1.6970 H       
  43 H43           -1.5382    -0.5273    -1.3431 H       
  44 H44            2.7264    -0.4456    -1.3280 H       
  45 H45            2.6868     1.9904    -1.6758 H       
  46 H46            1.5180    -2.3943    -0.5382 H       
  47 H47           -0.2616    -2.4284    -0.5443 H       
  48 H48            0.6757    -4.6888    -1.6733 H       
  49 H49            0.2461    -8.2076    -6.3966 H       
  50 H50            0.2261    -6.9531    -7.6592 H       
  51 H51            2.6922    -6.7513    -7.4978 H       
  52 H52            2.7123    -8.0058    -6.2352 H       
  53 H53            4.4705    -9.5086    -7.7562 H       
  54 H54            4.4505    -8.2541    -9.0188 H       
  55 H55            3.7423   -11.1958    -9.4210 H       
  56 H56            3.7223    -9.9413   -10.6836 H       
  57 H57            9.5469    -9.3833   -11.5411 H       
  58 H58           10.1182   -10.6468   -10.4251 H       
  59 H59           11.0886   -10.4390   -13.5256 H       
  60 H60           11.6599   -11.7025   -12.4096 H       
  61 H61           10.0752   -11.0231   -15.6503 H       
  62 H62           11.4545   -14.0488   -12.9788 H       
  63 H63           11.2994   -15.7182   -14.7804 H       
  64 H64            9.9123   -12.6852   -17.4579 H       
  65 H65           10.1825   -17.2353   -16.6496 H       
  66 H66           11.3409   -17.0347   -17.9861 H       
  67 H67           11.8137   -16.6009   -16.3258 H       
  68 H68            2.1846     4.3022    -2.8876 H       
  69 H69            1.5675     5.2644    -1.5232 H       
  70 H70            2.4809     3.7680    -1.2157 H       
  71 H71            9.5327   -13.8654   -18.4941 H       
  72 H72           10.6913   -14.9327   -19.3229 H       
  73 H73            9.1139   -15.5686   -18.7975 H       
  74 H74           -1.5734     3.4589    -2.0305 H       
  75 H75           -0.8749     4.9731    -1.4076 H       
  76 H76           -0.7658     4.5901    -3.1425 H       
@<TRIPOS>BOND
   1    1    2 ar
   2    1    6 ar
   3    1   42 1
   4    2    3 ar
   5    2   43 1
   6    3    4 ar
   7    3    7 1
   8    4    5 ar
   9    4   44 1
  10    5    6 ar
  11    5   45 1
  12    6   37 1
  13    7    8 1
  14    7   46 1
  15    7   47 1
  16    8    9 am
  17    8   15 2
  18    9   10 1
  19    9   48 1
  20   10   11 1
  21   10   14 2
  22   11   12 1
  23   12   13 2
  24   12   16 1
  25   13   14 1
  26   16   17 1
  27   16   49 1
  28   16   50 1
  29   17   39 1
  30   17   51 1
  31   17   52 1
  32   18   19 1
  33   18   39 1
  34   18   53 1
  35   18   54 1
  36   19   20 1
  37   19   55 1
  38   19   56 1
  39   20   21 2
  40   20   22 1
  41   21   24 1
  42   22   23 1
  43   23   24 2
  44   23   25 1
  45   25   26 1
  46   25   57 1
  47   25   58 1
  48   26   27 2
  49   26   28 1
  50   28   29 1
  51   28   59 1
  52   28   60 1
  53   29   30 ar
  54   29   31 ar
  55   30   34 ar
  56   30   61 1
  57   31   32 ar
  58   31   62 1
  59   32   33 ar
  60   32   63 1
  61   33   34 ar
  62   33   35 1
  63   34   64 1
  64   35   36 1
  65   35   40 1
  66   36   65 1
  67   36   66 1
  68   36   67 1
  69   37   38 1
  70   37   41 1
  71   38   68 1
  72   38   69 1
  73   38   70 1
  74   40   71 1
  75   40   72 1
  76   40   73 1
  77   41   74 1
  78   41   75 1
  79   41   76 1

#	End of record

