#	Name: ASD02500292
#	Creating user name:	WinNT
#	Creation time:	15. 06. 2019 20:22

#	Modifying user name:	WinNT
#	Modification time:	15. 06. 2019 20:22

#	Program:	/corina/corina34_cracker 3.40 0067  02.08.2006

@<TRIPOS>MOLECULE
ASD02500292
  59   63    0    0    0
SMALL
NO_CHARGES


@<TRIPOS>ATOM
   1 N1            -3.5421     5.6236     0.0295 N.ar    
   2 C2            -4.6579     6.2752    -0.1908 C.ar    
   3 C3            -5.7819     6.0972     0.6132 C.ar    
   4 C4            -5.7380     5.2244     1.6627 C.ar    
   5 C5            -4.5382     4.5259     1.8959 C.ar    
   6 C6            -4.4177     3.6130     2.9556 C.ar    
   7 C7            -3.2399     2.9574     3.1484 C.ar    
   8 C8            -2.1516     3.1808     2.3078 C.ar    
   9 C9            -2.2334     4.0588     1.2711 C.ar    
  10 C10           -3.4325     4.7548     1.0396 C.ar    
  11 S11           -0.8413     4.3228     0.2237 S.o2    
  12 O12           -0.6555     5.7296     0.1502 O.2     
  13 O13            0.1694     3.4274     0.6663 O.2     
  14 N14           -1.2712     3.8278    -1.2970 N.am    
  15 C15           -1.4953     2.4794    -1.5519 C.ar    
  16 C16           -1.1850     1.9475    -2.8007 C.ar    
  17 C17           -1.4056     0.6136    -3.0560 C.ar    
  18 C18           -1.9420    -0.2079    -2.0599 C.ar    
  19 C19           -2.2525     0.3291    -0.8073 C.ar    
  20 C20           -2.0242     1.6629    -0.5563 C.ar    
  21 C21           -0.6073     2.8338    -3.8740 C.3     
  22 F22           -0.3807     2.0791    -5.0300 F       
  23 F23           -1.5067     3.8665    -4.1600 F       
  24 F24            0.6017     3.3785    -3.4282 F       
  25 C25           -2.1802    -1.6384    -2.3305 C.2     
  26 O26           -2.6544    -1.9850    -3.3951 O.2     
  27 N27           -1.8723    -2.5611    -1.3976 N.am    
  28 C28           -2.0169    -3.9946    -1.6871 C.3     
  29 C29           -0.6733    -4.6858    -1.4237 C.3     
  30 N30           -0.1864    -4.2764    -0.0989 N.am    
  31 C31           -0.0418    -2.8428     0.1907 C.3     
  32 C32           -1.3800    -2.1518    -0.0747 C.3     
  33 C33            0.1215    -5.1991     0.8340 C.2     
  34 O34            0.5957    -4.8523     1.8991 O.2     
  35 S35           -0.3278    -9.1058     0.7941 S.3     
  36 C36           -0.6756    -8.3629    -0.7037 C.2     
  37 N37           -0.5102    -7.0895    -0.6256 N.2     
  38 C38           -0.1160    -6.6271     0.5638 C.2     
  39 C39            0.0442    -7.5926     1.4967 C.2     
  40 H40           -4.7072     6.9688    -1.0171 H       
  41 H41           -6.6870     6.6493     0.4069 H       
  42 H42           -6.5997     5.0744     2.2963 H       
  43 H43           -5.2542     3.4320     3.6143 H       
  44 H44           -3.1481     2.2552     3.9638 H       
  45 H45           -1.2279     2.6489     2.4819 H       
  46 H46           -1.3666     4.4786    -2.0100 H       
  47 H47           -1.1650     0.2016    -4.0249 H       
  48 H48           -2.6669    -0.3029    -0.0358 H       
  49 H49           -2.2594     2.0774     0.4129 H       
  50 H50           -2.7819    -4.4232    -1.0397 H       
  51 H51           -2.2996    -4.1303    -2.7310 H       
  52 H52           -0.8077    -5.7672    -1.4459 H       
  53 H53            0.0467    -4.3884    -2.1860 H       
  54 H54            0.2409    -2.7071     1.2346 H       
  55 H55            0.7232    -2.4142    -0.4567 H       
  56 H56           -1.2422    -1.0708    -0.0540 H       
  57 H57           -2.0987    -2.4462     0.6902 H       
  58 H58           -0.9901    -8.8889    -1.5930 H       
  59 H59            0.3561    -7.4337     2.5184 H       
@<TRIPOS>BOND
   1    1    2 ar
   2    1   10 ar
   3    2    3 ar
   4    2   40 1
   5    3    4 ar
   6    3   41 1
   7    4    5 ar
   8    4   42 1
   9    5    6 ar
  10    5   10 ar
  11    6    7 ar
  12    6   43 1
  13    7    8 ar
  14    7   44 1
  15    8    9 ar
  16    8   45 1
  17    9   10 ar
  18    9   11 1
  19   11   12 2
  20   11   13 2
  21   11   14 am
  22   14   15 1
  23   14   46 1
  24   15   16 ar
  25   15   20 ar
  26   16   17 ar
  27   16   21 1
  28   17   18 ar
  29   17   47 1
  30   18   19 ar
  31   18   25 1
  32   19   20 ar
  33   19   48 1
  34   20   49 1
  35   21   22 1
  36   21   23 1
  37   21   24 1
  38   25   26 2
  39   25   27 am
  40   27   28 1
  41   27   32 1
  42   28   29 1
  43   28   50 1
  44   28   51 1
  45   29   30 1
  46   29   52 1
  47   29   53 1
  48   30   31 1
  49   30   33 am
  50   31   32 1
  51   31   54 1
  52   31   55 1
  53   32   56 1
  54   32   57 1
  55   33   34 2
  56   33   38 1
  57   35   36 1
  58   35   39 1
  59   36   37 2
  60   36   58 1
  61   37   38 1
  62   38   39 2
  63   39   59 1

#	End of record

