#	Name: ASD07930747
#	Creating user name:	WinNT
#	Creation time:	15. 06. 2019 21:13

#	Modifying user name:	WinNT
#	Modification time:	15. 06. 2019 21:13

#	Program:	/corina/corina34_cracker 3.40 0067  02.08.2006

@<TRIPOS>MOLECULE
ASD07930747
  45   47    0    0    0
SMALL
NO_CHARGES


@<TRIPOS>ATOM
   1 C1             1.9196    -1.4730     2.8097 C.3     
   2 N2            -0.6866    -0.2189     2.0708 N.2     
   3 N3            -1.1272    -2.2857     1.0731 N.pl3   
   4 C4            -0.8914    -2.8298    -0.2684 C.3     
   5 C5             0.4860    -3.5062    -0.3052 C.3     
   6 S6             1.7360    -2.2843     0.2035 S.o2    
   7 N7             1.0962    -1.6703     1.6142 N.am    
   8 C8            -0.2552    -1.3556     1.6009 C.2     
   9 C9            -0.9311    -1.6953    -1.2941 C.3     
  10 O10            2.9366    -2.9289     0.6064 O.2     
  11 O11            1.7552    -1.1801    -0.6907 O.2     
  12 C12           -1.9583    -3.8426    -0.5953 C.ar    
  13 C13           -2.1000    -4.9764     0.1899 C.ar    
  14 C14           -3.0796    -5.9125    -0.1053 C.ar    
  15 C15           -3.9181    -5.7201    -1.1819 C.ar    
  16 C16           -3.7799    -4.5795    -1.9764 C.ar    
  17 C17           -2.7953    -3.6373    -1.6713 C.ar    
  18 F18           -1.2803    -5.1702     1.2462 F       
  19 C19           -4.6755    -4.3679    -3.1315 C.2     
  20 O20           -4.5532    -3.3745    -3.8215 O.2     
  21 N21           -5.6284    -5.2761    -3.4206 N.am    
  22 C22           -6.5412    -5.0268    -4.4438 C.ar    
  23 C23           -7.4507    -6.0122    -4.8102 C.ar    
  24 C24           -8.3518    -5.7520    -5.8278 C.ar    
  25 C25           -8.3117    -4.5091    -6.4465 C.ar    
  26 C26           -7.3801    -3.5765    -6.0305 C.ar    
  27 N27           -6.5374    -3.8519    -5.0538 N.ar    
  28 Cl28          -9.4192    -4.1312    -7.7287 Cl      
  29 H29            2.3492    -0.4713     2.7938 H       
  30 H30            1.3014    -1.5890     3.6999 H       
  31 H31            2.7209    -2.2117     2.8250 H       
  32 H32           -0.0593     0.4235     2.4379 H       
  33 H33           -1.8970    -2.5763     1.5868 H       
  34 H34            0.4983    -4.3523     0.3818 H       
  35 H35            0.6993    -3.8506    -1.3171 H       
  36 H36           -0.1577    -0.9645    -1.0577 H       
  37 H37           -0.7558    -2.1003    -2.2908 H       
  38 H38           -1.9081    -1.2128    -1.2646 H       
  39 H39           -3.1854    -6.7941     0.5095 H       
  40 H40           -4.6805    -6.4499    -1.4111 H       
  41 H41           -2.6841    -2.7538    -2.2823 H       
  42 H42           -5.6789    -6.1033    -2.9165 H       
  43 H43           -7.4538    -6.9681    -4.3077 H       
  44 H44           -9.0697    -6.4985    -6.1341 H       
  45 H45           -7.3447    -2.6086    -6.5083 H       
@<TRIPOS>BOND
   1    1    7 1
   2    1   29 1
   3    1   30 1
   4    1   31 1
   5    2    8 2
   6    2   32 1
   7    3    4 1
   8    3    8 1
   9    3   33 1
  10    4    5 1
  11    4    9 1
  12    4   12 1
  13    5    6 1
  14    5   34 1
  15    5   35 1
  16    6    7 am
  17    6   10 2
  18    6   11 2
  19    7    8 1
  20    9   36 1
  21    9   37 1
  22    9   38 1
  23   12   13 ar
  24   12   17 ar
  25   13   14 ar
  26   13   18 1
  27   14   15 ar
  28   14   39 1
  29   15   16 ar
  30   15   40 1
  31   16   17 ar
  32   16   19 1
  33   17   41 1
  34   19   20 2
  35   19   21 am
  36   21   22 1
  37   21   42 1
  38   22   23 ar
  39   22   27 ar
  40   23   24 ar
  41   23   43 1
  42   24   25 ar
  43   24   44 1
  44   25   26 ar
  45   25   28 1
  46   26   27 ar
  47   26   45 1

#	End of record

