#	Name: ASD01881277
#	Creating user name:	WinNT
#	Creation time:	15. 06. 2019 19:42

#	Modifying user name:	WinNT
#	Modification time:	15. 06. 2019 19:42

#	Program:	/corina/corina34_cracker 3.40 0067  02.08.2006

@<TRIPOS>MOLECULE
ASD01881277
  43   45    0    0    0
SMALL
NO_CHARGES


@<TRIPOS>ATOM
   1 C1            -0.0162     1.3398     0.0094 C.2     
   2 N2             0.0021    -0.0041     0.0020 N.am    
   3 C3             1.3975    -0.4574    -0.0137 C.3     
   4 C4             2.2453     0.7903    -0.0151 C.ar    
   5 C5             3.6007     1.0050    -0.0273 C.ar    
   6 C6             4.0976     2.3066    -0.0255 C.ar    
   7 C7             3.2198     3.3874    -0.0113 C.ar    
   8 C8             1.8605     3.1761     0.0009 C.ar    
   9 C9             1.3571     1.8711    -0.0009 C.ar    
  10 O10           -1.0238     2.0204     0.0181 O.2     
  11 C11           -1.1772    -0.8732     0.0086 C.3     
  12 C12           -1.6012    -1.1686    -1.4315 C.3     
  13 F13           -0.5543    -1.8081    -2.1040 F       
  14 F14           -2.7273    -1.9986    -1.4252 F       
  15 F15           -1.9095     0.0309    -2.0822 F       
  16 C16            0.9148     4.3493     0.0168 C.3     
  17 N17            5.4706     2.5264    -0.0373 N.pl3   
  18 C18            5.9934     3.8949    -0.0354 C.3     
  19 C19            8.1892     3.8456    -1.2499 C.ar    
  20 C20            7.4998     3.8572    -0.0498 C.ar    
  21 C21            8.2126     3.8341     1.1382 C.ar    
  22 C22            9.5979     3.8001     1.0768 C.ar    
  23 C23           10.2177     3.7904    -0.1578 C.ar    
  24 N24            9.5081     3.8135    -1.2695 N.ar    
  25 C25            7.4995     3.8461     2.4658 C.3     
  26 F26            8.4403     3.8180     3.5008 F       
  27 F27            6.7267     5.0077     2.5695 F       
  28 F28            6.6694     2.7239     2.5595 F       
  29 Cl29           7.3086     3.8670    -2.7458 Cl      
  30 H30            1.6082    -1.0527     0.8747 H       
  31 H31            1.5912    -1.0431    -0.9124 H       
  32 H32            4.2810     0.1663    -0.0380 H       
  33 H33            3.6076     4.3954    -0.0095 H       
  34 H34           -0.9369    -1.8078     0.5155 H       
  35 H35           -1.9929    -0.3750     0.5326 H       
  36 H36            0.6767     4.6379    -1.0070 H       
  37 H37           -0.0010     4.0708     0.5381 H       
  38 H38            1.3848     5.1879     0.5306 H       
  39 H39            6.0822     1.7735    -0.0469 H       
  40 H40            5.6346     4.4221    -0.9194 H       
  41 H41            5.6514     4.4132     0.8604 H       
  42 H42           10.1849     3.7817     1.9832 H       
  43 H43           11.2959     3.7640    -0.2134 H       
@<TRIPOS>BOND
   1    1    2 am
   2    1    9 1
   3    1   10 2
   4    2    3 1
   5    2   11 1
   6    3    4 1
   7    3   30 1
   8    3   31 1
   9    4    5 ar
  10    4    9 ar
  11    5    6 ar
  12    5   32 1
  13    6    7 ar
  14    6   17 1
  15    7    8 ar
  16    7   33 1
  17    8    9 ar
  18    8   16 1
  19   11   12 1
  20   11   34 1
  21   11   35 1
  22   12   13 1
  23   12   14 1
  24   12   15 1
  25   16   36 1
  26   16   37 1
  27   16   38 1
  28   17   18 1
  29   17   39 1
  30   18   20 1
  31   18   40 1
  32   18   41 1
  33   19   20 ar
  34   19   24 ar
  35   19   29 1
  36   20   21 ar
  37   21   22 ar
  38   21   25 1
  39   22   23 ar
  40   22   42 1
  41   23   24 ar
  42   23   43 1
  43   25   26 1
  44   25   27 1
  45   25   28 1

#	End of record

