#	Name: ASD05420016
#	Creating user name:	WinNT
#	Creation time:	15. 06. 2019 20:59

#	Modifying user name:	WinNT
#	Modification time:	15. 06. 2019 20:59

#	Program:	/corina/corina34_cracker 3.40 0067  02.08.2006

@<TRIPOS>MOLECULE
ASD05420016
  33   34    0    0    0
SMALL
NO_CHARGES


@<TRIPOS>ATOM
   1 C1            -0.1035     1.2028    -0.5886 C.2     
   2 N2             0.0021    -0.0041     0.0020 N.am    
   3 O3             0.8636     1.6933    -1.1549 O.co2   
   4 O4            -1.1677     1.8054    -0.5628 O.co2   
   5 C5             1.1962    -0.7356    -0.1037 C.ar    
   6 C6             1.1743    -2.1250     0.0029 C.ar    
   7 C7             2.3555    -2.8456    -0.1018 C.ar    
   8 C8             3.5567    -2.1804    -0.3127 C.ar    
   9 C9             3.5751    -0.7949    -0.4181 C.ar    
  10 C10            2.3969    -0.0760    -0.3199 C.ar    
  11 N11            4.7512    -2.9073    -0.4187 N.3     
  12 C12            5.3896    -2.6836    -1.7227 C.3     
  13 C13            6.6673    -3.4790    -1.7996 C.ar    
  14 C14            6.6479    -4.7714    -2.2902 C.ar    
  15 C15            7.8190    -5.5016    -2.3615 C.ar    
  16 C16            9.0121    -4.9384    -1.9415 C.ar    
  17 C17            9.0303    -3.6440    -1.4503 C.ar    
  18 C18            7.8588    -2.9138    -1.3848 C.ar    
  19 F19           10.1575    -5.6515    -2.0104 F       
  20 F20            4.7441    -0.1493    -0.6227 F       
  21 F21            2.3373    -4.1925     0.0016 F       
  22 N22           -0.0395    -2.7937     0.2162 N.pl3   
  23 H23           -0.7468    -0.3674     0.5001 H       
  24 H24            2.4129     1.0004    -0.4069 H       
  25 H25            5.3811    -2.6799     0.3360 H       
  26 H26            4.7148    -3.0024    -2.5171 H       
  27 H27            5.6140    -1.6234    -1.8403 H       
  28 H28            5.7170    -5.2106    -2.6174 H       
  29 H29            7.8035    -6.5113    -2.7445 H       
  30 H30            9.9603    -3.2037    -1.1224 H       
  31 H31            7.8734    -1.9027    -1.0055 H       
  32 H32           -0.8648    -2.2892     0.2897 H       
  33 H33           -0.0540    -3.7607     0.2903 H       
@<TRIPOS>BOND
   1    1    2 am
   2    1    3 ar
   3    1    4 ar
   4    2    5 1
   5    2   23 1
   6    5    6 ar
   7    5   10 ar
   8    6    7 ar
   9    6   22 1
  10    7    8 ar
  11    7   21 1
  12    8    9 ar
  13    8   11 1
  14    9   10 ar
  15    9   20 1
  16   10   24 1
  17   11   12 1
  18   11   25 1
  19   12   13 1
  20   12   26 1
  21   12   27 1
  22   13   14 ar
  23   13   18 ar
  24   14   15 ar
  25   14   28 1
  26   15   16 ar
  27   15   29 1
  28   16   17 ar
  29   16   19 1
  30   17   18 ar
  31   17   30 1
  32   18   31 1
  33   22   32 1
  34   22   33 1

#	End of record

