#	Name: ASD01410260
#	Creating user name:	WinNT
#	Creation time:	15. 06. 2019 19:17

#	Modifying user name:	WinNT
#	Modification time:	15. 06. 2019 19:17

#	Program:	/corina/corina34_cracker 3.40 0067  02.08.2006

@<TRIPOS>MOLECULE
ASD01410260
  28   29    0    0    0
SMALL
NO_CHARGES


@<TRIPOS>ATOM
   1 C1            -0.3350     1.5095    -0.6986 C.ar    
   2 C2            -0.0871     0.1616    -0.5349 C.ar    
   3 C3            -1.0458    -0.6646     0.0324 C.ar    
   4 C4            -2.2571    -0.1483     0.4392 C.ar    
   5 C5            -2.5229     1.2147     0.2806 C.ar    
   6 C6            -1.5490     2.0491    -0.2889 C.ar    
   7 N7            -1.8007     3.4059    -0.4522 N.pl3   
   8 Br8            0.9809     2.6246    -1.4736 Br      
   9 C9            -3.8164     1.7732     0.7136 C.2     
  10 N10           -4.7918     0.9529     1.1518 N.am    
  11 O11           -4.0035     2.9743     0.6755 O.2     
  12 C12           -7.1791     0.8162     1.4878 C.ar    
  13 C13           -5.9769     1.4880     1.6667 C.ar    
  14 C14           -5.9537     2.6923     2.3583 C.ar    
  15 C15           -7.1264     3.2181     2.8661 C.ar    
  16 C16           -8.3225     2.5455     2.6862 C.ar    
  17 C17           -8.3480     1.3467     1.9982 C.ar    
  18 Br18          -0.6892    -2.5091     0.2483 Br      
  19 Br19          -7.0967     4.8575     3.8079 Br      
  20 H20            0.8590    -0.2524    -0.8510 H       
  21 H21           -3.0003    -0.7963     0.8797 H       
  22 H22           -2.7144     3.7257    -0.5143 H       
  23 H23           -1.0627     4.0333    -0.5040 H       
  24 H24           -4.6719    -0.0088     1.1101 H       
  25 H25           -7.2008    -0.1181     0.9466 H       
  26 H26           -5.0203     3.2170     2.4993 H       
  27 H27           -9.2378     2.9578     3.0846 H       
  28 H28           -9.2831     0.8244     1.8592 H       
@<TRIPOS>BOND
   1    1    2 ar
   2    1    8 1
   3    1    6 ar
   4    2    3 ar
   5    2   20 1
   6    3    4 ar
   7    3   18 1
   8    4    5 ar
   9    4   21 1
  10    5    6 ar
  11    5    9 1
  12    6    7 1
  13    7   22 1
  14    7   23 1
  15    9   10 am
  16    9   11 2
  17   10   13 1
  18   10   24 1
  19   12   13 ar
  20   12   17 ar
  21   12   25 1
  22   13   14 ar
  23   14   15 ar
  24   14   26 1
  25   15   16 ar
  26   15   19 1
  27   16   17 ar
  28   16   27 1
  29   17   28 1

#	End of record

