#	Name: ASD03240240
#	Creating user name:	WinNT
#	Creation time:	15. 06. 2019 20:34

#	Modifying user name:	WinNT
#	Modification time:	15. 06. 2019 20:34

#	Program:	/corina/corina34_cracker 3.40 0067  02.08.2006

@<TRIPOS>MOLECULE
ASD03240240
  62   67    0    0    0
SMALL
NO_CHARGES


@<TRIPOS>ATOM
   1 C1             0.5599     0.8070     0.7404 C.ar    
   2 C2             0.7652    -0.4858     1.1413 C.ar    
   3 C3             2.0691    -0.9548     1.3190 C.ar    
   4 N4             3.1152    -0.1689     1.1059 N.ar    
   5 C5             2.9657     1.0859     0.7181 C.ar    
   6 C6             1.6782     1.6219     0.5203 C.ar    
   7 N7             3.8519     2.1056     0.4303 N.pl3   
   8 C8             3.1084     3.2032     0.0756 C.2     
   9 N9             1.8309     2.9094     0.1308 N.2     
  10 C10            3.6622     4.5160    -0.3097 C.ar    
  11 C11            5.2496     2.0329     0.4895 C.ar    
  12 C12            5.9449     1.2516    -0.4238 C.ar    
  13 C13            7.3229     1.1819    -0.3628 C.ar    
  14 C14            8.0102     1.8892     0.6065 C.ar    
  15 C15            7.3206     2.6682     1.5175 C.ar    
  16 C16            5.9429     2.7465     1.4581 C.ar    
  17 N17            3.6520     6.8739    -0.0993 N.ar    
  18 C18            3.1524     5.6991     0.2497 C.ar    
  19 C19            4.7078     4.6040    -1.2340 C.ar    
  20 C20            5.1921     5.8588    -1.5622 C.ar    
  21 C21            4.6346     6.9789    -0.9733 C.ar    
  22 C22            9.5138     1.8105     0.6706 C.3     
  23 N23            2.1202     5.6360     1.1719 N.pl3   
  24 N24           10.1286     3.0520     1.1469 N.am    
  25 C25            2.2866    -2.3554     1.7537 C.ar    
  26 C26            3.5816    -2.8385     1.9355 C.ar    
  27 C27            3.7780    -4.1430     2.3407 C.ar    
  28 C28            2.6929    -4.9708     2.5661 C.ar    
  29 C29            1.4056    -4.4970     2.3874 C.ar    
  30 C30            1.1969    -3.1926     1.9879 C.ar    
  31 C31           10.0350     0.5518     1.3840 C.3     
  32 C32           10.1569     1.2572    -0.6120 C.3     
  33 C33           11.1263     0.4865     0.3025 C.3     
  34 C34            9.8938     4.2113     0.5009 C.2     
  35 C35           10.4361     5.5046     1.0527 C.3     
  36 O36            9.2461     4.2138    -0.5245 O.2     
  37 H37           -0.4398     1.1881     0.5929 H       
  38 H38           -0.0760    -1.1393     1.3196 H       
  39 H39            5.4087     0.6986    -1.1808 H       
  40 H40            7.8643     0.5740    -1.0726 H       
  41 H41            7.8601     3.2192     2.2736 H       
  42 H42            5.4052     3.3588     2.1668 H       
  43 H43            5.1276     3.7148    -1.6807 H       
  44 H44            5.9992     5.9621    -2.2723 H       
  45 H45            5.0130     7.9571    -1.2307 H       
  46 H46            1.7118     6.4526     1.4994 H       
  47 H47            1.8061     4.7752     1.4901 H       
  48 H48           10.7047     3.0397     1.9272 H       
  49 H49            4.4296    -2.1933     1.7591 H       
  50 H50            4.7808    -4.5183     2.4819 H       
  51 H51            2.8514    -5.9912     2.8825 H       
  52 H52            0.5622    -5.1478     2.5648 H       
  53 H53            0.1913    -2.8224     1.8530 H       
  54 H54           10.4224     0.7457     2.3842 H       
  55 H55            9.3394    -0.2869     1.3536 H       
  56 H56            9.4947     0.6118    -1.1891 H       
  57 H57           10.6427     2.0197    -1.2209 H       
  58 H58           12.0257     1.0480     0.5553 H       
  59 H59           11.3406    -0.5256    -0.0410 H       
  60 H60           11.4287     5.6874     0.6410 H       
  61 H61            9.7720     6.3239     0.7773 H       
  62 H62           10.4999     5.4379     2.1388 H       
@<TRIPOS>BOND
   1    1    2 ar
   2    1    6 ar
   3    1   37 1
   4    2    3 ar
   5    2   38 1
   6    3    4 ar
   7    3   25 1
   8    4    5 ar
   9    5    7 1
  10    5    6 ar
  11    6    9 1
  12    7    8 1
  13    7   11 1
  14    8    9 2
  15    8   10 1
  16   10   19 ar
  17   10   18 ar
  18   11   12 ar
  19   11   16 ar
  20   12   13 ar
  21   12   39 1
  22   13   14 ar
  23   13   40 1
  24   14   15 ar
  25   14   22 1
  26   15   16 ar
  27   15   41 1
  28   16   42 1
  29   17   18 ar
  30   17   21 ar
  31   18   23 1
  32   19   20 ar
  33   19   43 1
  34   20   21 ar
  35   20   44 1
  36   21   45 1
  37   22   24 1
  38   22   31 1
  39   22   32 1
  40   23   46 1
  41   23   47 1
  42   24   34 am
  43   24   48 1
  44   25   26 ar
  45   25   30 ar
  46   26   27 ar
  47   26   49 1
  48   27   28 ar
  49   27   50 1
  50   28   29 ar
  51   28   51 1
  52   29   30 ar
  53   29   52 1
  54   30   53 1
  55   31   33 1
  56   31   54 1
  57   31   55 1
  58   32   33 1
  59   32   56 1
  60   32   57 1
  61   33   58 1
  62   33   59 1
  63   34   35 1
  64   34   36 2
  65   35   60 1
  66   35   61 1
  67   35   62 1

#	End of record

