#	Name: ASD05430312
#	Creating user name:	WinNT
#	Creation time:	15. 06. 2019 21:00

#	Modifying user name:	WinNT
#	Modification time:	15. 06. 2019 21:00

#	Program:	/corina/corina34_cracker 3.40 0067  02.08.2006

@<TRIPOS>MOLECULE
ASD05430312
  55   59    0    0    0
SMALL
NO_CHARGES


@<TRIPOS>ATOM
   1 N1             0.0707     1.3423    -0.0400 N.pl3   
   2 C2             0.2380    -0.1113    -0.1247 C.3     
   3 C3             1.2752    -0.3772    -1.2293 C.3     
   4 O4             2.4120     0.4645    -1.0318 O.3     
   5 C5             2.1608     1.8704    -1.1332 C.3     
   6 C6             1.2161     2.2780     0.0027 C.3     
   7 O7             0.6192     3.5539    -0.2524 O.3     
   8 N8            -0.7830     3.3663    -0.1547 N.2     
   9 C9            -1.0729     2.1038    -0.0252 C.2     
  10 C10            1.9140     2.2356     1.3377 C.ar    
  11 C11            2.2268     3.4130     1.9912 C.ar    
  12 C12            2.2358     1.0192     1.9104 C.ar    
  13 C13            2.8750     0.9791     3.1351 C.ar    
  14 C14            3.1935     2.1577     3.7881 C.ar    
  15 C15            2.8664     3.3753     3.2157 C.ar    
  16 F16            3.8184     2.1197     4.9853 F       
  17 C17           -2.4325     1.5682     0.1161 C.2     
  18 C18           -3.4879     2.4033     0.1180 C.2     
  19 C19           -4.8512     1.8663     0.2596 C.ar    
  20 C20           -5.0516     0.4885     0.3923 C.ar    
  21 C21           -5.9484     2.7329     0.2676 C.ar    
  22 C22           -7.2261     2.2234     0.4014 C.ar    
  23 C23           -7.4187     0.8481     0.5279 C.ar    
  24 C24           -6.3283    -0.0123     0.5253 C.ar    
  25 N25           -8.7151     0.3333     0.6639 N.pl3   
  26 C26           -9.6638     0.7557     1.5395 C.2     
  27 N27          -10.7388     0.0356     1.3668 N.2     
  28 C28          -10.5223    -0.8591     0.3913 C.2     
  29 C29           -9.2672    -0.6876    -0.0656 C.2     
  30 O30           -8.2953     3.0632     0.4100 O.3     
  31 C31           -8.0243     4.4599     0.2765 C.3     
  32 C32          -11.5141    -1.8769    -0.1103 C.3     
  33 H33            0.5994    -0.5007     0.8270 H       
  34 H34           -0.7109    -0.5809    -0.3841 H       
  35 H35            1.5859    -1.4213    -1.1918 H       
  36 H36            0.8317    -0.1656    -2.2022 H       
  37 H37            3.0992     2.4176    -1.0433 H       
  38 H38            1.6953     2.0910    -2.0938 H       
  39 H39            1.9715     4.3626     1.5446 H       
  40 H40            1.9873     0.1000     1.4009 H       
  41 H41            3.1257     0.0287     3.5827 H       
  42 H42            3.1146     4.2953     3.7241 H       
  43 H43           -2.5858     0.5041     0.2185 H       
  44 H44           -3.3346     3.4675     0.0156 H       
  45 H45           -4.2057    -0.1829     0.3902 H       
  46 H46           -5.7977     3.7978     0.1699 H       
  47 H47           -6.4819    -1.0769     0.6232 H       
  48 H48           -9.5480     1.5532     2.2584 H       
  49 H49           -8.7856    -1.2510    -0.8512 H       
  50 H50           -7.5161     4.6425    -0.6703 H       
  51 H51           -8.9617     5.0156     0.2988 H       
  52 H52           -7.3884     4.7869     1.0992 H       
  53 H53          -12.0943    -1.4470    -0.9268 H       
  54 H54          -10.9811    -2.7579    -0.4679 H       
  55 H55          -12.1840    -2.1618     0.7009 H       
@<TRIPOS>BOND
   1    1    2 1
   2    1    6 1
   3    1    9 1
   4    2    3 1
   5    2   33 1
   6    2   34 1
   7    3    4 1
   8    3   35 1
   9    3   36 1
  10    4    5 1
  11    5    6 1
  12    5   37 1
  13    5   38 1
  14    6    7 1
  15    6   10 1
  16    7    8 1
  17    8    9 2
  18    9   17 1
  19   10   11 ar
  20   10   12 ar
  21   11   15 ar
  22   11   39 1
  23   12   13 ar
  24   12   40 1
  25   13   14 ar
  26   13   41 1
  27   14   15 ar
  28   14   16 1
  29   15   42 1
  30   17   18 2
  31   17   43 1
  32   18   19 1
  33   18   44 1
  34   19   20 ar
  35   19   21 ar
  36   20   24 ar
  37   20   45 1
  38   21   22 ar
  39   21   46 1
  40   22   23 ar
  41   22   30 1
  42   23   24 ar
  43   23   25 1
  44   24   47 1
  45   25   26 1
  46   25   29 1
  47   26   27 2
  48   26   48 1
  49   27   28 1
  50   28   29 2
  51   28   32 1
  52   29   49 1
  53   30   31 1
  54   31   50 1
  55   31   51 1
  56   31   52 1
  57   32   53 1
  58   32   54 1
  59   32   55 1

#	End of record

