#	Name: ASD01410909
#	Creating user name:	WinNT
#	Creation time:	15. 06. 2019 19:18

#	Modifying user name:	WinNT
#	Modification time:	15. 06. 2019 19:18

#	Program:	/corina/corina34_cracker 3.40 0067  02.08.2006

@<TRIPOS>MOLECULE
ASD01410909
  73   76    0    0    0
SMALL
NO_CHARGES


@<TRIPOS>ATOM
   1 C1             0.2285     1.2607    -0.0627 C.ar    
   2 C2            -0.9344    -0.8458     0.0099 C.ar    
   3 C3            -2.1252    -0.2033    -0.2950 C.ar    
   4 C4            -2.1406     1.1889    -0.4743 C.ar    
   5 C5            -0.9510     1.9147    -0.3612 C.ar    
   6 O6             1.3849     1.9672     0.0530 O.3     
   7 C7             2.2298     1.9841    -1.0083 C.ar    
   8 N8            -3.3052    -0.9363    -0.4118 N.am    
   9 C9            -4.1356    -1.0494     0.6437 C.2     
  10 C10           -5.3660    -1.9139     0.5453 C.3     
  11 O11           -3.8926    -0.4553     1.6728 O.2     
  12 C12           -5.9293    -2.1608     1.9462 C.3     
  13 C13           -7.6682    -2.0846    -0.4105 C.3     
  14 C14           -8.2314    -2.3315     0.9905 C.3     
  15 C15           -7.1785    -3.0385     1.8463 C.3     
  16 C16           -9.4806    -3.2093     0.8905 C.3     
  17 N17            1.8644     1.4157    -2.1458 N.ar    
  18 C18           -3.6426    -1.5838    -1.6819 C.3     
  19 C19           -3.7617    -0.5238    -2.7789 C.3     
  20 C20            3.4679     2.6029    -0.8922 C.ar    
  21 C21            4.3204     2.6135    -1.9826 C.ar    
  22 C22            3.9019     2.0017    -3.1560 C.ar    
  23 C23            2.6550     1.4098    -3.2019 C.ar    
  24 C24           -6.4190    -1.2069    -0.3105 C.3     
  25 C25            0.2361    -0.1190     0.1259 C.ar    
  26 F26            1.3928    -0.7506     0.4231 F       
  27 C27           -1.4734    -4.5939    -1.3127 C.3     
  28 O28           -2.4738    -3.6054    -1.0596 O.3     
  29 C29           -2.5437    -2.5812    -2.0537 C.3     
  30 C30            4.7961     1.9889    -4.3690 C.3     
  31 N31            5.6422     0.7933    -4.3393 N.pl3   
  32 N32            5.3267    -0.3383    -4.8625 N.2     
  33 C33            6.3073    -1.1874    -4.6538 C.2     
  34 C34            7.2807    -0.4808    -3.9437 C.2     
  35 N35            6.8041     0.7340    -3.7912 N.2     
  36 C36            3.8773     3.2545     0.4035 C.3     
  37 F37            5.1571     3.8026     0.2659 F       
  38 F38            2.9678     4.2682     0.7235 F       
  39 F39            3.8871     2.2976     1.4240 F       
  40 C40           -3.4004     1.8793    -0.7983 C.2     
  41 O41           -4.4334     1.2462    -0.8923 O.2     
  42 O42           -3.4077     3.2132    -0.9905 O.3     
  43 H43           -0.9200    -1.9168     0.1487 H       
  44 H44           -0.9543     2.9849    -0.5067 H       
  45 H45           -5.1045    -2.8670     0.0856 H       
  46 H46           -5.1791    -2.6645     2.5559 H       
  47 H47           -6.1908    -1.2076     2.4058 H       
  48 H48           -7.4067    -3.0378    -0.8701 H       
  49 H49           -8.4183    -1.5810    -1.0201 H       
  50 H50           -8.4929    -1.3784     1.4501 H       
  51 H51           -6.9170    -3.9917     1.3866 H       
  52 H52           -7.5798    -3.2144     2.8443 H       
  53 H53           -9.2191    -4.1624     0.4309 H       
  54 H54           -9.8819    -3.3851     1.8886 H       
  55 H55          -10.2308    -2.7056     0.2809 H       
  56 H56           -4.5918    -2.1100    -1.5806 H       
  57 H57           -2.8047    -0.0160    -2.8988 H       
  58 H58           -4.0392    -1.0025    -3.7180 H       
  59 H59           -4.5260     0.2021    -2.5013 H       
  60 H60            5.2890     3.0874    -1.9218 H       
  61 H61            2.3247     0.9324    -4.1126 H       
  62 H62           -6.6805    -0.2538     0.1491 H       
  63 H63           -6.0177    -1.0310    -1.3086 H       
  64 H64           -0.4939    -4.1175    -1.3530 H       
  65 H65           -1.4844    -5.3350    -0.5135 H       
  66 H66           -1.6789    -5.0833    -2.2648 H       
  67 H67           -2.7713    -3.0288    -3.0211 H       
  68 H68           -1.5863    -2.0631    -2.1093 H       
  69 H69            4.1845     1.9788    -5.2711 H       
  70 H70            5.4249     2.8792    -4.3662 H       
  71 H71            6.3515    -2.2201    -4.9669 H       
  72 H72            8.2320    -0.8551    -3.5954 H       
  73 H73           -4.2585     3.6218    -1.2010 H       
@<TRIPOS>BOND
   1    1   25 ar
   2    1    6 1
   3    1    5 ar
   4    2    3 ar
   5    2   25 ar
   6    2   43 1
   7    3    4 ar
   8    3    8 1
   9    4    5 ar
  10    4   40 1
  11    5   44 1
  12    6    7 1
  13    7   20 ar
  14    7   17 ar
  15    8    9 am
  16    8   18 1
  17    9   11 2
  18    9   10 1
  19   10   12 1
  20   10   24 1
  21   10   45 1
  22   12   15 1
  23   12   46 1
  24   12   47 1
  25   13   14 1
  26   13   24 1
  27   13   48 1
  28   13   49 1
  29   14   15 1
  30   14   16 1
  31   14   50 1
  32   15   51 1
  33   15   52 1
  34   16   53 1
  35   16   54 1
  36   16   55 1
  37   17   23 ar
  38   18   19 1
  39   18   29 1
  40   18   56 1
  41   19   57 1
  42   19   58 1
  43   19   59 1
  44   20   21 ar
  45   20   36 1
  46   21   22 ar
  47   21   60 1
  48   22   23 ar
  49   22   30 1
  50   23   61 1
  51   24   62 1
  52   24   63 1
  53   25   26 1
  54   27   28 1
  55   27   64 1
  56   27   65 1
  57   27   66 1
  58   28   29 1
  59   29   67 1
  60   29   68 1
  61   30   31 1
  62   30   69 1
  63   30   70 1
  64   31   32 1
  65   31   35 1
  66   32   33 2
  67   33   34 1
  68   33   71 1
  69   34   35 2
  70   34   72 1
  71   36   37 1
  72   36   38 1
  73   36   39 1
  74   40   41 2
  75   40   42 1
  76   42   73 1

#	End of record

