#	Name: ASD01813995
#	Creating user name:	WinNT
#	Creation time:	15. 06. 2019 19:31

#	Modifying user name:	WinNT
#	Modification time:	15. 06. 2019 19:31

#	Program:	/corina/corina34_cracker 3.40 0067  02.08.2006

@<TRIPOS>MOLECULE
ASD01813995
  45   49    0    0    0
SMALL
NO_CHARGES


@<TRIPOS>ATOM
   1 C1            -0.0169     1.3969     0.0097 C.ar    
   2 C2             0.0021    -0.0041     0.0020 C.ar    
   3 C3             1.2465    -0.6678    -0.0134 C.ar    
   4 N4             2.3777     0.0239    -0.0201 N.ar    
   5 C5             2.3717     1.3383    -0.0125 C.ar    
   6 C6             1.1825     2.0589     0.0018 C.ar    
   7 C7             1.2365    -2.1420    -0.0213 C.2     
   8 N8            -1.1391    -0.7340     0.0095 N.2     
   9 C9            -1.1167    -2.0327     0.0027 C.2     
  10 N10            0.0317    -2.7576    -0.0131 N.am    
  11 C11           -0.0349    -4.2211    -0.0203 C.3     
  12 F12           -2.4106    -4.6261     1.4321 F       
  13 C13           -1.2481    -4.9094     2.0593 C.ar    
  14 C14           -0.0441    -4.7306     1.3979 C.ar    
  15 C15            1.1515    -5.0188     2.0356 C.ar    
  16 C16           -1.2618    -5.3719     3.3618 C.ar    
  17 C17           -0.0609    -5.6640     4.0082 C.ar    
  18 C18            1.1484    -5.4872     3.3360 C.ar    
  19 C19           -0.0697    -6.1593     5.4035 C.ar    
  20 C20            0.6915    -7.3522     5.7781 C.ar    
  21 C21           -0.7914    -5.5026     6.3803 C.ar    
  22 C22           -0.8088    -5.9570     7.6964 C.ar    
  23 C23           -0.1276    -7.0580     8.0988 C.ar    
  24 C24            0.6455    -7.7981     7.1794 C.ar    
  25 C25            1.5059    -8.2395     5.1093 C.2     
  26 N26            1.9330    -9.1538     5.9927 N.pl3   
  27 N27            1.3994    -8.8800     7.2575 N.2     
  28 C28            2.8220   -10.2753     5.6794 C.3     
  29 O29            2.2723    -2.7808    -0.0350 O.2     
  30 F30            2.3223    -4.8423     1.3852 F       
  31 H31           -0.9507     1.9396     0.0171 H       
  32 H32            3.3114     1.8706    -0.0180 H       
  33 H33            1.2044     3.1387     0.0071 H       
  34 H34           -2.0579    -2.5622     0.0092 H       
  35 H35           -0.9453    -4.5409    -0.5272 H       
  36 H36            0.8327    -4.6217    -0.5446 H       
  37 H37           -2.2007    -5.5067     3.8781 H       
  38 H38            2.0810    -5.7123     3.8321 H       
  39 H39           -1.3535    -4.6184     6.1183 H       
  40 H40           -1.3879    -5.4103     8.4259 H       
  41 H41           -0.1734    -7.3685     9.1322 H       
  42 H42            1.7557    -8.2052     4.0591 H       
  43 H43            3.8584    -9.9662     5.8150 H       
  44 H44            2.6018   -11.1102     6.3446 H       
  45 H45            2.6671   -10.5838     4.6455 H       
@<TRIPOS>BOND
   1    1    2 ar
   2    1    6 ar
   3    1   31 1
   4    2    3 ar
   5    2    8 1
   6    3    4 ar
   7    3    7 1
   8    4    5 ar
   9    5    6 ar
  10    5   32 1
  11    6   33 1
  12    7   10 am
  13    7   29 2
  14    8    9 2
  15    9   10 1
  16    9   34 1
  17   10   11 1
  18   11   14 1
  19   11   35 1
  20   11   36 1
  21   12   13 1
  22   13   16 ar
  23   13   14 ar
  24   14   15 ar
  25   15   18 ar
  26   15   30 1
  27   16   17 ar
  28   16   37 1
  29   17   18 ar
  30   17   19 1
  31   18   38 1
  32   19   21 ar
  33   19   20 ar
  34   20   25 2
  35   20   24 ar
  36   21   22 ar
  37   21   39 1
  38   22   23 ar
  39   22   40 1
  40   23   24 ar
  41   23   41 1
  42   24   27 2
  43   25   26 1
  44   25   42 1
  45   26   27 1
  46   26   28 1
  47   28   43 1
  48   28   44 1
  49   28   45 1

#	End of record

