#	Name: ASD01150086
#	Creating user name:	WinNT
#	Creation time:	15. 06. 2019 19:03

#	Modifying user name:	WinNT
#	Modification time:	15. 06. 2019 19:03

#	Program:	/corina/corina34_cracker 3.40 0067  02.08.2006

@<TRIPOS>MOLECULE
ASD01150086
  22   22    0    0    0
SMALL
NO_CHARGES


@<TRIPOS>ATOM
   1 N1             0.9035     0.8239     0.7166 N.2     
   2 C2             0.5666    -0.4480     0.8052 C.2     
   3 N3            -0.5810    -0.8930     0.2141 N.pl3   
   4 C4            -0.8779    -2.2609     0.2037 C.ar    
   5 O5             1.3549    -1.3085     1.4790 O.3     
   6 C6             2.6255    -0.7984     1.9624 C.3     
   7 C7            -2.2001    -2.6854     0.2048 C.ar    
   8 C8            -2.4909    -4.0355     0.1945 C.ar    
   9 C9            -1.4651    -4.9656     0.1836 C.ar    
  10 C10           -0.1459    -4.5444     0.1825 C.ar    
  11 C11            0.1492    -3.1952     0.1865 C.ar    
  12 F12           -1.7516    -6.2858     0.1745 F       
  13 C13            1.9302     1.3060     1.4579 C.1     
  14 N14            2.7910     1.7101     2.0793 N.1     
  15 H15           -1.1905    -0.2612    -0.1985 H       
  16 H16            3.1385    -0.2765     1.1546 H       
  17 H17            2.4496    -0.1077     2.7871 H       
  18 H18            3.2421    -1.6279     2.3085 H       
  19 H19           -3.0004    -1.9603     0.2140 H       
  20 H20           -3.5190    -4.3661     0.1953 H       
  21 H21            0.6527    -5.2715     0.1744 H       
  22 H22            1.1782    -2.8671     0.1854 H       
@<TRIPOS>BOND
   1    1    2 2
   2    1   13 1
   3    2    3 1
   4    2    5 1
   5    3    4 1
   6    3   15 1
   7    4    7 ar
   8    4   11 ar
   9    5    6 1
  10    6   16 1
  11    6   17 1
  12    6   18 1
  13    7    8 ar
  14    7   19 1
  15    8    9 ar
  16    8   20 1
  17    9   10 ar
  18    9   12 1
  19   10   11 ar
  20   10   21 1
  21   11   22 1
  22   13   14 3

#	End of record

