#	Name: ASD03730702
#	Creating user name:	WinNT
#	Creation time:	15. 06. 2019 20:44

#	Modifying user name:	WinNT
#	Modification time:	15. 06. 2019 20:44

#	Program:	/corina/corina34_cracker 3.40 0067  02.08.2006

@<TRIPOS>MOLECULE
ASD03730702
  65   71    0    0    0
SMALL
NO_CHARGES


@<TRIPOS>ATOM
   1 C1             1.8876    -0.8903    -2.0940 C.2     
   2 C2             0.9801    -1.1198    -0.9497 C.ar    
   3 C3             1.3724    -0.7570     0.3399 C.ar    
   4 C4             0.5207    -0.9734     1.4031 C.ar    
   5 C5            -0.7201    -1.5492     1.1936 C.ar    
   6 C6            -1.1150    -1.9110    -0.0819 C.ar    
   7 C7            -0.2749    -1.6947    -1.1549 C.ar    
   8 O8             2.9353    -0.2964    -1.9292 O.2     
   9 N9             1.5559    -1.3443    -3.3189 N.am    
  10 C10            2.7236    -0.1307     0.5701 C.3     
  11 O11            0.0149    -2.8087     6.6679 O.3     
  12 C12           -0.0999    -2.8565     8.1023 C.3     
  13 O13            1.2469    -2.6361     8.5611 O.3     
  14 C14            1.8526    -1.9049     7.5795 C.ar    
  15 C15            1.0952    -2.0123     6.4154 C.ar    
  16 C16            3.0073    -1.1432     7.5856 C.ar    
  17 C17            3.4218    -0.4819     6.4335 C.ar    
  18 C18            2.6613    -0.6034     5.2745 C.ar    
  19 C19            1.5062    -1.3571     5.2668 C.ar    
  20 O20            4.5043     0.3230     6.2319 O.3     
  21 C21            3.3714     0.1899     4.2104 C.3     
  22 C22            4.7601     0.4301     4.8182 C.3     
  23 N23            2.8597     0.2315     1.9831 N.am    
  24 C24            3.4514    -0.5516     2.9071 C.2     
  25 C25            2.6691     1.4768     3.8934 C.ar    
  26 C26            2.2983     2.5687     4.6461 C.ar    
  27 C27            1.6454     3.6324     4.0491 C.ar    
  28 C28            1.3656     3.5960     2.6951 C.ar    
  29 C29            1.7341     2.5041     1.9372 C.ar    
  30 C30            2.3921     1.4290     2.5297 C.ar    
  31 O31            3.9507    -1.6413     2.7219 O.2     
  32 C32            2.4060    -1.0330    -4.4706 C.3     
  33 C33            2.1543    -2.0546    -5.5813 C.3     
  34 C34            3.0422    -1.7294    -6.7842 C.3     
  35 C35            2.7120    -0.3264    -7.2973 C.3     
  36 C36            2.9638     0.6953    -6.1866 C.3     
  37 C37            2.0759     0.3701    -4.9837 C.3     
  38 H38            0.8230    -0.6932     2.4014 H       
  39 H39           -1.3829    -1.7171     2.0296 H       
  40 H40           -2.0847    -2.3600    -0.2387 H       
  41 H41           -0.5860    -1.9739    -2.1507 H       
  42 H42            0.7542    -1.8773    -3.4378 H       
  43 H43            3.5044    -0.8420     0.3006 H       
  44 H44            2.8190     0.7640    -0.0451 H       
  45 H45           -0.7605    -2.0667     8.4601 H       
  46 H46           -0.4595    -3.8335     8.4253 H       
  47 H47            3.5911    -1.0613     8.4905 H       
  48 H48            0.9210    -1.4368     4.3626 H       
  49 H49            5.1265     1.4250     4.5653 H       
  50 H50            5.4630    -0.3368     4.4928 H       
  51 H51            2.5177     2.5949     5.7033 H       
  52 H52            1.3553     4.4893     4.6389 H       
  53 H53            0.8558     4.4263     2.2292 H       
  54 H54            1.5117     2.4828     0.8806 H       
  55 H55            3.4532    -1.0730    -4.1706 H       
  56 H56            2.3895    -3.0542    -5.2158 H       
  57 H57            1.1071    -2.0145    -5.8813 H       
  58 H58            4.0893    -1.7695    -6.4842 H       
  59 H59            2.8628    -2.4573    -7.5755 H       
  60 H60            3.3446    -0.0947    -8.1542 H       
  61 H61            1.6649    -0.2863    -7.5973 H       
  62 H62            4.0109     0.6552    -5.8866 H       
  63 H63            2.7285     1.6948    -6.5522 H       
  64 H64            1.0287     0.4101    -5.2837 H       
  65 H65            2.2552     1.0979    -4.1924 H       
@<TRIPOS>BOND
   1    1    2 1
   2    1    8 2
   3    1    9 am
   4    2    3 ar
   5    2    7 ar
   6    3    4 ar
   7    3   10 1
   8    4    5 ar
   9    4   38 1
  10    5    6 ar
  11    5   39 1
  12    6    7 ar
  13    6   40 1
  14    7   41 1
  15    9   32 1
  16    9   42 1
  17   10   23 1
  18   10   43 1
  19   10   44 1
  20   11   12 1
  21   11   15 1
  22   12   13 1
  23   12   45 1
  24   12   46 1
  25   13   14 1
  26   14   15 ar
  27   14   16 ar
  28   15   19 ar
  29   16   17 ar
  30   16   47 1
  31   17   18 ar
  32   17   20 1
  33   18   19 ar
  34   18   21 1
  35   19   48 1
  36   20   22 1
  37   21   22 1
  38   21   24 1
  39   21   25 1
  40   22   49 1
  41   22   50 1
  42   23   24 am
  43   23   30 1
  44   24   31 2
  45   25   26 ar
  46   25   30 ar
  47   26   27 ar
  48   26   51 1
  49   27   28 ar
  50   27   52 1
  51   28   29 ar
  52   28   53 1
  53   29   30 ar
  54   29   54 1
  55   32   33 1
  56   32   37 1
  57   32   55 1
  58   33   34 1
  59   33   56 1
  60   33   57 1
  61   34   35 1
  62   34   58 1
  63   34   59 1
  64   35   36 1
  65   35   60 1
  66   35   61 1
  67   36   37 1
  68   36   62 1
  69   36   63 1
  70   37   64 1
  71   37   65 1

#	End of record

