#	Name: ASD03180045
#	Creating user name:	WinNT
#	Creation time:	15. 06. 2019 20:33

#	Modifying user name:	WinNT
#	Modification time:	15. 06. 2019 20:33

#	Program:	/corina/corina34_cracker 3.40 0067  02.08.2006

@<TRIPOS>MOLECULE
ASD03180045
  39   41    0    0    0
SMALL
NO_CHARGES


@<TRIPOS>ATOM
   1 C1             0.3986     1.0245    -1.4899 C.ar    
   2 C2             0.0873    -0.0477    -0.6649 C.ar    
   3 C3             0.9357    -0.3958     0.3687 C.ar    
   4 C4             2.0966     0.3214     0.5845 C.ar    
   5 C5             2.4134     1.3955    -0.2380 C.ar    
   6 C6             1.5619     1.7466    -1.2770 C.ar    
   7 N7             3.5872     2.1218    -0.0194 N.pl3   
   8 C8             3.5749     3.5046    -0.1165 C.2     
   9 C9             4.4151     5.5813    -0.1611 C.2     
  10 N10            4.6201     4.2696    -0.0453 N.2     
  11 S11            2.1391     4.4935    -0.3632 S.3     
  12 C12            3.1329     5.9482    -0.3414 C.2     
  13 C13            5.5188     6.5640    -0.0977 C.2     
  14 S14            5.3606     8.3134    -0.2372 S.3     
  15 C15            7.0503     8.4913    -0.0487 C.2     
  16 N16            7.6102     7.3379     0.0975 N.2     
  17 C17            6.8266     6.2811     0.0832 C.2     
  18 C18            7.7823     9.8086    -0.0530 C.3     
  19 C19            7.3446     4.8758     0.2498 C.3     
  20 C20            3.0195    -0.0611     1.7127 C.3     
  21 O21           -0.4344     1.3623    -2.5091 O.3     
  22 C22           -1.6126     0.5706    -2.6736 C.3     
  23 H23           -0.8195    -0.6104    -0.8309 H       
  24 H24            0.6906    -1.2299     1.0094 H       
  25 H25            1.8059     2.5808    -1.9181 H       
  26 H26            4.4105     1.6583     0.2002 H       
  27 H27            2.7747     6.9607    -0.4550 H       
  28 H28            7.8378    10.1968     0.9640 H       
  29 H29            8.7902     9.6628    -0.4417 H       
  30 H30            7.2485    10.5188    -0.6844 H       
  31 H31            7.5940     4.4622    -0.7274 H       
  32 H32            8.2360     4.8890     0.8770 H       
  33 H33            6.5784     4.2596     0.7203 H       
  34 H34            3.7502    -0.7862     1.3545 H       
  35 H35            3.5368     0.8269     2.0759 H       
  36 H36            2.4390    -0.5006     2.5239 H       
  37 H37           -1.3310    -0.4663    -2.8569 H       
  38 H38           -2.2182     0.6282    -1.7691 H       
  39 H39           -2.1874     0.9461    -3.5202 H       
@<TRIPOS>BOND
   1    1    2 ar
   2    1    6 ar
   3    1   21 1
   4    2    3 ar
   5    2   23 1
   6    3    4 ar
   7    3   24 1
   8    4    5 ar
   9    4   20 1
  10    5    6 ar
  11    5    7 1
  12    6   25 1
  13    7    8 1
  14    7   26 1
  15    8   11 1
  16    8   10 2
  17    9   10 1
  18    9   12 2
  19    9   13 1
  20   11   12 1
  21   12   27 1
  22   13   14 1
  23   13   17 2
  24   14   15 1
  25   15   16 2
  26   15   18 1
  27   16   17 1
  28   17   19 1
  29   18   28 1
  30   18   29 1
  31   18   30 1
  32   19   31 1
  33   19   32 1
  34   19   33 1
  35   20   34 1
  36   20   35 1
  37   20   36 1
  38   21   22 1
  39   22   37 1
  40   22   38 1
  41   22   39 1

#	End of record

