#	Name: ASD01310018
#	Creating user name:	WinNT
#	Creation time:	15. 06. 2019 19:15

#	Modifying user name:	WinNT
#	Modification time:	15. 06. 2019 19:15

#	Program:	/corina/corina34_cracker 3.40 0067  02.08.2006

@<TRIPOS>MOLECULE
ASD01310018
   7    6    0    0    0
SMALL
NO_CHARGES


@<TRIPOS>ATOM
   1 C1            -0.0184     1.5028     0.0103 C.2     
   2 C2             0.0021    -0.0041     0.0020 C.3     
   3 O3             1.0291     2.1267     0.0037 O.co2   
   4 O4            -1.0824     2.0980     0.0186 O.co2   
   5 F5             0.0210    -0.4774     1.3184 F       
   6 F6            -1.1400    -0.4824    -0.6492 F       
   7 F7             1.1442    -0.4513    -0.6708 F       
@<TRIPOS>BOND
   1    1    2 1
   2    1    3 ar
   3    1    4 ar
   4    2    5 1
   5    2    6 1
   6    2    7 1

#	End of record

