#	Name: ASD04882077
#	Creating user name:	WinNT
#	Creation time:	15. 06. 2019 20:54

#	Modifying user name:	WinNT
#	Modification time:	15. 06. 2019 20:54

#	Program:	/corina/corina34_cracker 3.40 0067  02.08.2006

@<TRIPOS>MOLECULE
ASD04882077
  76   80    0    0    0
SMALL
NO_CHARGES


@<TRIPOS>ATOM
   1 C1             2.1858     1.8464    -0.8000 C.ar    
   2 C2             2.2272     0.4692    -0.7094 C.ar    
   3 C3             1.0488    -0.2513    -0.5599 C.ar    
   4 C4            -0.1675     0.4169    -0.5022 C.ar    
   5 C5            -0.2017     1.7947    -0.5936 C.ar    
   6 C6             0.9729     2.5086    -0.7423 C.ar    
   7 C7            -1.4484    -0.3605    -0.3407 C.3     
   8 N8             1.0870    -1.6445    -0.4683 N.3     
   9 C9             0.6795    -2.0957     0.8696 C.3     
  10 C10            2.4205    -2.1584    -0.8109 C.3     
  11 C11            2.3991    -3.6884    -0.7759 C.3     
  12 N12            1.9916    -4.1396     0.5620 N.3     
  13 C13            0.6582    -3.6257     0.9045 C.3     
  14 C14            2.0298    -5.5286     0.6533 C.ar    
  15 C15            1.2420    -6.3014    -0.1915 C.ar    
  16 C16            2.8647    -6.1439     1.5907 C.ar    
  17 C17            2.9027    -7.5221     1.6808 C.ar    
  18 C18            2.1052    -8.2972     0.8334 C.ar    
  19 C19            1.2766    -7.6759    -0.1046 C.ar    
  20 N20            3.6626    -5.3636     2.4378 N.am    
  21 C21            3.9230    -5.7817     3.6923 C.2     
  22 C22            4.6631    -4.9156     4.6148 C.2     
  23 O23            3.5436    -6.8785     4.0593 O.2     
  24 S24            5.2844    -3.3062     4.2560 S.3     
  25 C25            5.9158    -3.1862     5.8401 C.2     
  26 N26            5.6568    -4.2632     6.5118 N.2     
  27 C27            4.9872    -5.2073     5.8996 C.2     
  28 C28            2.1428    -9.7691     0.9256 C.2     
  29 O29            2.8676   -10.3090     1.7391 O.2     
  30 N30            1.3737   -10.5153     0.1083 N.am    
  31 C31            1.4109   -11.9770     0.1999 C.3     
  32 C32            0.4522   -12.5772    -0.8304 C.3     
  33 C33            0.4911   -14.1037    -0.7347 C.3     
  34 N34           -0.4269   -14.6784    -1.7212 N.am    
  35 C35           -0.0508   -15.0315    -3.0952 C.3     
  36 C36           -1.3833   -15.1724    -3.8640 C.3     
  37 C37           -2.3685   -15.5245    -2.7254 C.3     
  38 C38           -1.7204   -14.9553    -1.4825 C.2     
  39 O39           -2.2873   -14.7689    -0.4267 O.2     
  40 Br40           6.8592    -1.6932     6.5158 Br      
  41 C41            4.6176    -6.5097     6.5616 C.3     
  42 H42            3.1019     2.4074    -0.9117 H       
  43 H43            3.1746    -0.0473    -0.7549 H       
  44 H44           -1.1471     2.3149    -0.5488 H       
  45 H45            0.9434     3.5859    -0.8131 H       
  46 H46           -1.6355    -0.5364     0.7186 H       
  47 H47           -2.2749     0.2087    -0.7661 H       
  48 H48           -1.3611    -1.3160    -0.8578 H       
  49 H49            1.3884    -1.7249     1.6100 H       
  50 H50           -0.3158    -1.7129     1.0950 H       
  51 H51            2.6944    -1.8213    -1.8106 H       
  52 H52            3.1491    -1.7884    -0.0896 H       
  53 H53            1.6902    -4.0592    -1.5163 H       
  54 H54            3.3944    -4.0712    -1.0013 H       
  55 H55            0.3843    -3.9628     1.9042 H       
  56 H56           -0.0705    -3.9957     0.1833 H       
  57 H57            0.6010    -5.8234    -0.9174 H       
  58 H58            3.5472    -7.9997     2.4040 H       
  59 H59            0.6599    -8.2736    -0.7594 H       
  60 H60            4.0277    -4.5225     2.1213 H       
  61 H61            0.7954   -10.0846    -0.5406 H       
  62 H62            2.4237   -12.3278     0.0014 H       
  63 H63            1.1089   -12.2862     1.2006 H       
  64 H64           -0.5606   -12.2264    -0.6319 H       
  65 H65            0.7542   -12.2680    -1.8310 H       
  66 H66            1.5039   -14.4545    -0.9332 H       
  67 H67            0.1891   -14.4128     0.2660 H       
  68 H68            0.5567   -14.2407    -3.5351 H       
  69 H69            0.4928   -15.9762    -3.1065 H       
  70 H70           -1.6593   -14.2323    -4.3417 H       
  71 H71           -1.3283   -15.9785    -4.5955 H       
  72 H72           -3.3377   -15.0578    -2.9015 H       
  73 H73           -2.4755   -16.6054    -2.6342 H       
  74 H74            3.6464    -6.4083     7.0461 H       
  75 H75            4.5683    -7.2980     5.8103 H       
  76 H76            5.3707    -6.7649     7.3071 H       
@<TRIPOS>BOND
   1    1    2 ar
   2    1    6 ar
   3    1   42 1
   4    2    3 ar
   5    2   43 1
   6    3    4 ar
   7    3    8 1
   8    4    5 ar
   9    4    7 1
  10    5    6 ar
  11    5   44 1
  12    6   45 1
  13    7   46 1
  14    7   47 1
  15    7   48 1
  16    8    9 1
  17    8   10 1
  18    9   13 1
  19    9   49 1
  20    9   50 1
  21   10   11 1
  22   10   51 1
  23   10   52 1
  24   11   12 1
  25   11   53 1
  26   11   54 1
  27   12   13 1
  28   12   14 1
  29   13   55 1
  30   13   56 1
  31   14   15 ar
  32   14   16 ar
  33   15   19 ar
  34   15   57 1
  35   16   17 ar
  36   16   20 1
  37   17   18 ar
  38   17   58 1
  39   18   19 ar
  40   18   28 1
  41   19   59 1
  42   20   21 am
  43   20   60 1
  44   21   22 1
  45   21   23 2
  46   22   24 1
  47   22   27 2
  48   24   25 1
  49   25   26 2
  50   25   40 1
  51   26   27 1
  52   27   41 1
  53   28   29 2
  54   28   30 am
  55   30   31 1
  56   30   61 1
  57   31   32 1
  58   31   62 1
  59   31   63 1
  60   32   33 1
  61   32   64 1
  62   32   65 1
  63   33   34 1
  64   33   66 1
  65   33   67 1
  66   34   35 1
  67   34   38 am
  68   35   36 1
  69   35   68 1
  70   35   69 1
  71   36   37 1
  72   36   70 1
  73   36   71 1
  74   37   38 1
  75   37   72 1
  76   37   73 1
  77   38   39 2
  78   41   74 1
  79   41   75 1
  80   41   76 1

#	End of record

