#	Name: ASD05430254
#	Creating user name:	WinNT
#	Creation time:	15. 06. 2019 21:00

#	Modifying user name:	WinNT
#	Modification time:	15. 06. 2019 21:00

#	Program:	/corina/corina34_cracker 3.40 0067  02.08.2006

@<TRIPOS>MOLECULE
ASD05430254
  79   85    0    0    0
SMALL
NO_CHARGES


@<TRIPOS>ATOM
   1 C1             1.0753     1.0147    -1.4911 C.ar    
   2 C2             0.2614     0.7101    -0.4030 C.ar    
   3 C3             0.5741     1.2078     0.8532 C.ar    
   4 C4             1.6910     2.0037     1.0224 C.ar    
   5 C5             2.4988     2.3063    -0.0584 C.ar    
   6 C6             2.1938     1.8136    -1.3132 C.ar    
   7 C7             4.9680     1.2929     1.1990 C.3     
   8 C8             4.4688     2.7298     1.3849 C.3     
   9 C9             3.7149     3.1756     0.1323 C.3     
  10 C10            3.7752     0.3336     1.2551 C.3     
  11 C11            3.0382     0.2964     2.6007 C.3     
  12 N12            2.8313     1.6780     3.0361 N.pl3   
  13 C13            3.5370     2.7742     2.5755 C.2     
  14 N14            3.2944     3.8029     3.3097 N.2     
  15 N15           -0.8729    -0.0982    -0.5772 N.pl3   
  16 C16           -1.1557    -1.2604     0.0920 C.2     
  17 C17           -2.3349    -1.7063    -0.3817 C.2     
  18 N18           -2.7644    -0.8438    -1.3146 N.2     
  19 C19           -1.9001     0.1269    -1.4365 C.2     
  20 C20           -3.0485    -2.9580     0.0601 C.3     
  21 C21            1.8563     2.1841     4.0083 C.3     
  22 O22            2.3973     3.4746     4.3592 O.3     
  23 C23            0.4966     2.3291     3.3749 C.ar    
  24 O24            0.7768     0.5250    -2.7236 O.3     
  25 C25            1.7903     1.2720     5.2350 C.3     
  26 C26           -0.4528     1.3389     3.5437 C.ar    
  27 C27           -1.0482     3.5906     2.0486 C.ar    
  28 C28            0.1982     3.4553     2.6304 C.ar    
  29 C29           -1.9992     2.5981     2.2110 C.ar    
  30 F30           -3.2177     2.7297     1.6426 F       
  31 C31            2.9445     0.1534    -0.0139 C.3     
  32 C32            3.8698    -0.9687     0.4623 C.3     
  33 C33            1.6563     0.8789    -3.7929 C.3     
  34 C34            0.6801     1.7550     6.1704 C.3     
  35 C35           -1.7018     1.4714     2.9623 C.ar    
  36 F36           -2.6302     0.5037     3.1265 F       
  37 C37            4.6330     3.0452    -1.0878 C.3     
  38 C38            5.6586     3.6555     1.6376 C.3     
  39 C39            6.6485     3.5423     0.4733 C.3     
  40 C40            5.9066     3.8148    -0.8165 C.2     
  41 O41            6.3208     4.6259    -1.6096 O.2     
  42 O42            5.1989     5.0045     1.7428 O.3     
  43 C43            5.9968     5.8254     2.5981 C.3     
  44 H44           -0.0554     0.9737     1.6990 H       
  45 H45            1.9335     2.3906     2.0011 H       
  46 H46            2.8268     2.0515    -2.1553 H       
  47 H47            5.4634     1.2018     0.2324 H       
  48 H48            5.6714     1.0461     1.9942 H       
  49 H49            3.4051     4.2146     0.2450 H       
  50 H50            2.0756    -0.2008     2.4807 H       
  51 H51            3.6403    -0.2363     3.3367 H       
  52 H52           -0.5490    -1.7290     0.8528 H       
  53 H53           -1.9843     0.9648    -2.1127 H       
  54 H54           -3.7143    -2.7229     0.8904 H       
  55 H55           -3.6306    -3.3569    -0.7707 H       
  56 H56           -2.3166    -3.6997     0.3801 H       
  57 H57            1.5793     0.2508     4.9175 H       
  58 H58            2.7452     1.2994     5.7599 H       
  59 H59           -0.2198     0.4616     4.1289 H       
  60 H60           -1.2802     4.4709     1.4676 H       
  61 H61            0.9397     4.2302     2.5036 H       
  62 H62            1.8711     0.0048     0.1040 H       
  63 H63            3.2474     0.7147    -0.8978 H       
  64 H64            4.7815    -1.1455    -0.1083 H       
  65 H65            3.4052    -1.8554     0.8935 H       
  66 H66            1.3043     0.4237    -4.7186 H       
  67 H67            1.6743     1.9629    -3.9049 H       
  68 H68            2.6612     0.5198    -3.5706 H       
  69 H69            0.8910     2.7762     6.4878 H       
  70 H70           -0.2748     1.7276     5.6455 H       
  71 H71            0.6330     1.1052     7.0443 H       
  72 H72            4.8691     1.9948    -1.2576 H       
  73 H73            4.1358     3.4579    -1.9657 H       
  74 H74            6.1534     3.3666     2.5649 H       
  75 H75            7.4464     4.2743     0.5985 H       
  76 H76            7.0704     2.5375     0.4478 H       
  77 H77            5.5823     6.8332     2.6245 H       
  78 H78            5.9991     5.4070     3.6046 H       
  79 H79            7.0176     5.8622     2.2175 H       
@<TRIPOS>BOND
   1    1    2 ar
   2    1    6 ar
   3    1   24 1
   4    2    3 ar
   5    2   15 1
   6    3    4 ar
   7    3   44 1
   8    4    5 ar
   9    4   45 1
  10    5    6 ar
  11    5    9 1
  12    6   46 1
  13    7    8 1
  14    7   10 1
  15    7   47 1
  16    7   48 1
  17    8    9 1
  18    8   38 1
  19    8   13 1
  20    9   37 1
  21    9   49 1
  22   10   11 1
  23   10   31 1
  24   10   32 1
  25   11   12 1
  26   11   50 1
  27   11   51 1
  28   12   13 1
  29   12   21 1
  30   13   14 2
  31   14   22 1
  32   15   16 1
  33   15   19 1
  34   16   17 2
  35   16   52 1
  36   17   18 1
  37   17   20 1
  38   18   19 2
  39   19   53 1
  40   20   54 1
  41   20   55 1
  42   20   56 1
  43   21   22 1
  44   21   23 1
  45   21   25 1
  46   23   26 ar
  47   23   28 ar
  48   24   33 1
  49   25   34 1
  50   25   57 1
  51   25   58 1
  52   26   35 ar
  53   26   59 1
  54   27   28 ar
  55   27   29 ar
  56   27   60 1
  57   28   61 1
  58   29   30 1
  59   29   35 ar
  60   31   32 1
  61   31   62 1
  62   31   63 1
  63   32   64 1
  64   32   65 1
  65   33   66 1
  66   33   67 1
  67   33   68 1
  68   34   69 1
  69   34   70 1
  70   34   71 1
  71   35   36 1
  72   37   40 1
  73   37   72 1
  74   37   73 1
  75   38   39 1
  76   38   42 1
  77   38   74 1
  78   39   40 1
  79   39   75 1
  80   39   76 1
  81   40   41 2
  82   42   43 1
  83   43   77 1
  84   43   78 1
  85   43   79 1

#	End of record

