#	Name: ASD03900007
#	Creating user name:	WinNT
#	Creation time:	15. 06. 2019 20:47

#	Modifying user name:	WinNT
#	Modification time:	15. 06. 2019 20:47

#	Program:	/corina/corina34_cracker 3.40 0067  02.08.2006

@<TRIPOS>MOLECULE
ASD03900007
  48   50    0    0    0
SMALL
NO_CHARGES


@<TRIPOS>ATOM
   1 C1            -0.0184     1.5028     0.0103 C.3     
   2 C2             0.1079     0.0018    -0.0361 C.ar    
   3 C3             1.3553     2.1217     0.0411 C.ar    
   4 C4            -0.7583     1.9827    -1.2117 C.ar    
   5 O5            -0.7390     1.8841     1.1839 O.3     
   6 C6             1.1299    -0.5827    -0.7611 C.ar    
   7 C7             1.2478    -1.9584    -0.8053 C.ar    
   8 C8             0.3397    -2.7536    -0.1214 C.ar    
   9 C9            -0.6848    -2.1647     0.6053 C.ar    
  10 C10           -0.7951    -0.7883     0.6509 C.ar    
  11 C11            1.9211     2.4864     1.2489 C.ar    
  12 C12            3.1802     3.0540     1.2798 C.ar    
  13 C13            3.8770     3.2579     0.0976 C.ar    
  14 C14            3.3071     2.8912    -1.1129 C.ar    
  15 C15            2.0501     2.3188    -1.1380 C.ar    
  16 C16           -1.5286     3.1290    -1.1462 C.ar    
  17 C17           -2.2079     3.5710    -2.2649 C.ar    
  18 C18           -2.1166     2.8637    -3.4549 C.ar    
  19 C19           -1.3430     1.7138    -3.5180 C.ar    
  20 C20           -0.6611     1.2791    -2.3980 C.ar    
  21 O21           -2.7842     3.2962    -4.5567 O.3     
  22 C22           -2.6442     2.5182    -5.7472 C.3     
  23 O23            0.4533    -4.1072    -0.1636 O.3     
  24 C24           -0.5170    -4.8627     0.5643 C.3     
  25 O25            5.1156     3.8165     0.1254 O.3     
  26 C26            5.7743     3.9966    -1.1299 C.3     
  27 H27           -0.3198     1.6073     2.0102 H       
  28 H28            1.8364     0.0367    -1.2937 H       
  29 H29            2.0460    -2.4145    -1.3720 H       
  30 H30           -1.3930    -2.7815     1.1386 H       
  31 H31           -1.5925    -0.3294     1.2165 H       
  32 H32            1.3780     2.3277     2.1688 H       
  33 H33            3.6215     3.3390     2.2234 H       
  34 H34            3.8476     3.0489    -2.0345 H       
  35 H35            1.6060     2.0331    -2.0801 H       
  36 H36           -1.5997     3.6791    -0.2195 H       
  37 H37           -2.8098     4.4662    -2.2132 H       
  38 H38           -1.2703     1.1614    -4.4432 H       
  39 H39           -0.0588     0.3840    -2.4466 H       
  40 H40           -3.2265     2.9725    -6.5488 H       
  41 H41           -1.5938     2.4824    -6.0364 H       
  42 H42           -3.0053     1.5061    -5.5644 H       
  43 H43           -0.4665    -4.5973     1.6203 H       
  44 H44           -1.5128    -4.6402     0.1810 H       
  45 H45           -0.3117    -5.9267     0.4468 H       
  46 H46            5.9001     3.0293    -1.6163 H       
  47 H47            5.1737     4.6475    -1.7653 H       
  48 H48            6.7516     4.4505    -0.9656 H       
@<TRIPOS>BOND
   1    1    2 1
   2    1    3 1
   3    1    4 1
   4    1    5 1
   5    2    6 ar
   6    2   10 ar
   7    3   11 ar
   8    3   15 ar
   9    4   16 ar
  10    4   20 ar
  11    5   27 1
  12    6    7 ar
  13    6   28 1
  14    7    8 ar
  15    7   29 1
  16    8    9 ar
  17    8   23 1
  18    9   10 ar
  19    9   30 1
  20   10   31 1
  21   11   12 ar
  22   11   32 1
  23   12   13 ar
  24   12   33 1
  25   13   14 ar
  26   13   25 1
  27   14   15 ar
  28   14   34 1
  29   15   35 1
  30   16   17 ar
  31   16   36 1
  32   17   18 ar
  33   17   37 1
  34   18   19 ar
  35   18   21 1
  36   19   20 ar
  37   19   38 1
  38   20   39 1
  39   21   22 1
  40   22   40 1
  41   22   41 1
  42   22   42 1
  43   23   24 1
  44   24   43 1
  45   24   44 1
  46   24   45 1
  47   25   26 1
  48   26   46 1
  49   26   47 1
  50   26   48 1

#	End of record

