#	Name: ASD04910144
#	Creating user name:	WinNT
#	Creation time:	15. 06. 2019 20:55

#	Modifying user name:	WinNT
#	Modification time:	15. 06. 2019 20:55

#	Program:	/corina/corina34_cracker 3.40 0067  02.08.2006

@<TRIPOS>MOLECULE
ASD04910144
  29   31    0    0    0
SMALL
NO_CHARGES


@<TRIPOS>ATOM
   1 C1             0.0114     1.3927     0.2284 C.ar    
   2 C2             0.0526     0.0126     0.3692 C.ar    
   3 C3             1.2290    -0.6704     0.1359 C.ar    
   4 C4             2.3718     0.0238    -0.2404 C.ar    
   5 C5             2.3298     1.4045    -0.3815 C.ar    
   6 C6             1.1525     2.0866    -0.1474 C.ar    
   7 O7            -1.1488     2.0641     0.4533 O.3     
   8 C8             1.2738    -2.1688     0.2899 C.3     
   9 N9             3.6837    -1.8274    -1.2537 N.2     
  10 N10            3.5667    -0.6691    -0.4770 N.pl3   
  11 C11            4.7692    -0.3197     0.0072 C.2     
  12 C12            5.6935    -1.2435    -0.4445 C.ar    
  13 C13            7.0845    -1.4184    -0.2840 C.ar    
  14 C14            7.7003    -2.4678    -0.8844 C.ar    
  15 C15            6.9931    -3.3871    -1.6623 C.ar    
  16 C16            5.6550    -3.2784    -1.8584 C.ar    
  17 C17            4.9479    -2.2118    -1.2641 C.ar    
  18 H18           -0.8361    -0.5270     0.6618 H       
  19 H19            3.2181     1.9448    -0.6737 H       
  20 H20            1.1197     3.1605    -0.2572 H       
  21 H21           -1.2656     2.3518     1.3691 H       
  22 H22            1.1210    -2.6386    -0.6818 H       
  23 H23            2.2446    -2.4643     0.6877 H       
  24 H24            0.4882    -2.4873     0.9750 H       
  25 H25            4.9776     0.5320     0.6378 H       
  26 H26            7.6550    -0.7216     0.3122 H       
  27 H27            8.7653    -2.5954    -0.7576 H       
  28 H28            7.5261    -4.2069    -2.1208 H       
  29 H29            5.1341    -4.0043    -2.4651 H       
@<TRIPOS>BOND
   1    1    2 ar
   2    1    6 ar
   3    1    7 1
   4    2    3 ar
   5    2   18 1
   6    3    4 ar
   7    3    8 1
   8    4    5 ar
   9    4   10 1
  10    5    6 ar
  11    5   19 1
  12    6   20 1
  13    7   21 1
  14    8   22 1
  15    8   23 1
  16    8   24 1
  17    9   10 1
  18    9   17 2
  19   10   11 1
  20   11   12 2
  21   11   25 1
  22   12   13 ar
  23   12   17 ar
  24   13   14 ar
  25   13   26 1
  26   14   15 ar
  27   14   27 1
  28   15   16 ar
  29   15   28 1
  30   16   17 ar
  31   16   29 1

#	End of record

