#	Name: ASD05490077
#	Creating user name:	WinNT
#	Creation time:	15. 06. 2019 21:01

#	Modifying user name:	WinNT
#	Modification time:	15. 06. 2019 21:01

#	Program:	/corina/corina34_cracker 3.40 0067  02.08.2006

@<TRIPOS>MOLECULE
ASD05490077
  63   66    0    0    0
SMALL
NO_CHARGES


@<TRIPOS>ATOM
   1 N1            -0.0178     1.4608     0.0101 N.pl3   
   2 O2             4.5582     2.8949    -0.0261 O.3     
   3 N3             2.7941     4.3826    -0.0015 N.ar    
   4 C4             1.4952     4.6638     0.0118 C.ar    
   5 C5             3.2233     3.1292    -0.0123 C.ar    
   6 N6             2.3949     2.0994    -0.0093 N.ar    
   7 C7             1.0795     2.2895     0.0040 C.ar    
   8 C8             0.5781     3.6006     0.0150 C.ar    
   9 N9             1.0558     5.9772     0.0226 N.pl3   
  10 C10           -1.1306     2.2546     0.0190 C.2     
  11 N11           -0.7773     3.5129     0.0270 N.2     
  12 C12            5.4173     4.0368    -0.0280 C.3     
  13 C13            6.8766     3.5771    -0.0442 C.3     
  14 O14            7.1483     2.8975    -1.2715 O.3     
  15 C15            8.4917     2.4246    -1.3889 C.3     
  16 C16            0.0021    -0.0041     0.0020 C.3     
  17 C17            0.0225    -0.5140     1.4200 C.ar    
  18 C18           -1.1679    -0.7635     2.0799 C.ar    
  19 C19           -1.1551    -1.2305     3.3782 C.ar    
  20 C20            0.0599    -1.4512     4.0248 C.ar    
  21 C21            1.2559    -1.1985     3.3550 C.ar    
  22 C22            1.2314    -0.7363     2.0552 C.ar    
  23 B23            0.0811    -1.9819     5.5022 Du      
  24 O24            1.2302    -2.2627     6.3141 O.3     
  25 O25           -1.0443    -2.2864     6.3383 O.3     
  26 C26           -0.6603    -3.4842     7.0458 C.3     
  27 C27            0.8864    -3.4680     7.0294 C.3     
  28 C28            1.4246    -4.6973     6.2944 C.3     
  29 C29            1.4341    -3.4168     8.4570 C.3     
  30 C30           -1.1773    -3.4420     8.4852 C.3     
  31 C31           -1.1918    -4.7237     6.3232 C.3     
  32 O32           -2.4073     1.8048     0.0270 O.3     
  33 C33           -3.4422     2.7900     0.0462 C.3     
  34 H34            1.6985     6.7037     0.0206 H       
  35 H35            0.1053     6.1706     0.0323 H       
  36 H36            5.2168     4.6408    -0.9129 H       
  37 H37            5.2335     4.6312     0.8670 H       
  38 H38            7.5315     4.4439     0.0439 H       
  39 H39            7.0539     2.9012     0.7924 H       
  40 H40            9.1802     3.2675    -1.3287 H       
  41 H41            8.7025     1.7248    -0.5803 H       
  42 H42            8.6170     1.9208    -2.3473 H       
  43 H43           -0.8878    -0.3767    -0.5053 H       
  44 H44            0.8920    -0.3525    -0.5222 H       
  45 H45           -2.1086    -0.5922     1.5780 H       
  46 H46           -2.0847    -1.4243     3.8926 H       
  47 H47            2.2001    -1.3675     3.8514 H       
  48 H48            2.1575    -0.5402     1.5353 H       
  49 H49            1.0586    -4.6959     5.2677 H       
  50 H50            2.5142    -4.6708     6.2917 H       
  51 H51            1.0843    -5.6009     6.8002 H       
  52 H52            1.0941    -4.2934     9.0084 H       
  53 H53            2.5237    -3.4059     8.4280 H       
  54 H54            1.0749    -2.5144     8.9518 H       
  55 H55           -2.2662    -3.3928     8.4788 H       
  56 H56           -0.8573    -4.3406     9.0126 H       
  57 H57           -0.7768    -2.5627     8.9895 H       
  58 H58           -0.8014    -4.7465     5.3058 H       
  59 H59           -0.8717    -5.6196     6.8553 H       
  60 H60           -2.2808    -4.6881     6.2939 H       
  61 H61           -4.4139     2.2962     0.0508 H       
  62 H62           -3.3425     3.4042     0.9411 H       
  63 H63           -3.3595     3.4211    -0.8387 H       
@<TRIPOS>BOND
   1    1   16 1
   2    1    7 1
   3    1   10 1
   4    2   12 1
   5    2    5 1
   6    3    4 ar
   7    3    5 ar
   8    4    9 1
   9    4    8 ar
  10    5    6 ar
  11    6    7 ar
  12    7    8 ar
  13    8   11 1
  14    9   34 1
  15    9   35 1
  16   10   11 2
  17   10   32 1
  18   12   13 1
  19   12   36 1
  20   12   37 1
  21   13   14 1
  22   13   38 1
  23   13   39 1
  24   14   15 1
  25   15   40 1
  26   15   41 1
  27   15   42 1
  28   16   17 1
  29   16   43 1
  30   16   44 1
  31   17   18 ar
  32   17   22 ar
  33   18   19 ar
  34   18   45 1
  35   19   20 ar
  36   19   46 1
  37   20   21 ar
  38   20   23 1
  39   21   22 ar
  40   21   47 1
  41   22   48 1
  42   23   24 1
  43   23   25 1
  44   24   27 1
  45   25   26 1
  46   26   27 1
  47   26   30 1
  48   26   31 1
  49   27   28 1
  50   27   29 1
  51   28   49 1
  52   28   50 1
  53   28   51 1
  54   29   52 1
  55   29   53 1
  56   29   54 1
  57   30   55 1
  58   30   56 1
  59   30   57 1
  60   31   58 1
  61   31   59 1
  62   31   60 1
  63   32   33 1
  64   33   61 1
  65   33   62 1
  66   33   63 1

#	End of record

