#	Name: ASD01900298
#	Creating user name:	WinNT
#	Creation time:	15. 06. 2019 19:51

#	Modifying user name:	WinNT
#	Modification time:	15. 06. 2019 19:51

#	Program:	/corina/corina34_cracker 3.40 0067  02.08.2006

@<TRIPOS>MOLECULE
ASD01900298
  58   62    0    0    0
SMALL
NO_CHARGES


@<TRIPOS>ATOM
   1 C1             0.1376     0.8639    -0.2615 C.ar    
   2 C2             0.3178    -0.5028    -0.2978 C.ar    
   3 C3             1.5917    -1.0417    -0.4048 C.ar    
   4 C4             2.7002    -0.2175    -0.4691 C.ar    
   5 C5             2.5362     1.1563    -0.4275 C.ar    
   6 C6             1.2451     1.7059    -0.3338 C.ar    
   7 N7             3.6213     2.0247    -0.4694 N.pl3   
   8 C8             3.4340     3.3642    -1.0383 C.3     
   9 N9             2.1776     3.9455    -0.5642 N.am    
  10 C10            1.1047     3.1719    -0.3050 C.2     
  11 C11            4.6014     4.2607    -0.6149 C.3     
  12 C12            3.4066     3.2658    -2.5662 C.3     
  13 C13            3.2800     4.6707    -3.1598 C.3     
  14 N14            4.4167     5.4919    -2.7243 N.3     
  15 C15            4.4392     5.6376    -1.2633 C.3     
  16 C16            2.0884     5.3304    -0.3760 C.ar    
  17 C17            1.4407     6.1191    -1.3176 C.ar    
  18 C18            1.3527     7.4845    -1.1311 C.ar    
  19 C19            1.9113     8.0682    -0.0034 C.ar    
  20 C20            2.5589     7.2810     0.9375 C.ar    
  21 C21            2.6426     5.9148     0.7552 C.ar    
  22 C22            2.4216     9.9465     1.3630 C.3     
  23 O23            1.8243     9.4128     0.1796 O.3     
  24 C24            4.4013     6.8044    -3.3840 C.3     
  25 C25            5.5164     7.6560    -2.8342 C.ar    
  26 C26            6.7949     7.5347    -3.3464 C.ar    
  27 C27            7.8193     8.3163    -2.8422 C.ar    
  28 C28            7.5620     9.2210    -1.8229 C.ar    
  29 C29            6.2814     9.3401    -1.3125 C.ar    
  30 C30            5.2588     8.5616    -1.8223 C.ar    
  31 O31            0.0296     3.6801    -0.0498 O.2     
  32 Br32           1.8140    -2.9186    -0.4627 Br      
  33 F33            8.5607     9.9849    -1.3287 F       
  34 F34            9.0689     8.1980    -3.3418 F       
  35 H35           -0.8563     1.2789    -0.1820 H       
  36 H36           -0.5388    -1.1582    -0.2422 H       
  37 H37            3.6891    -0.6437    -0.5510 H       
  38 H38            4.4869     1.7498    -0.1288 H       
  39 H39            4.6040     4.3670     0.4699 H       
  40 H40            5.5407     3.8134    -0.9401 H       
  41 H41            4.3291     2.8037    -2.9178 H       
  42 H42            2.5545     2.6612    -2.8768 H       
  43 H43            3.2746     4.6060    -4.2479 H       
  44 H44            2.3507     5.1267    -2.8187 H       
  45 H45            3.5051     6.0888    -0.9288 H       
  46 H46            5.2745     6.2756    -0.9747 H       
  47 H47            1.0061     5.6648    -2.1958 H       
  48 H48            0.8493     8.0981    -1.8635 H       
  49 H49            2.9938     7.7362     1.8150 H       
  50 H50            3.1427     5.3014     1.4901 H       
  51 H51            1.9521     9.5006     2.2398 H       
  52 H52            3.4876     9.7188     1.3663 H       
  53 H53            2.2808    11.0271     1.3854 H       
  54 H54            4.5396     6.6732    -4.4572 H       
  55 H55            3.4451     7.2934    -3.1979 H       
  56 H56            6.9940     6.8296    -4.1398 H       
  57 H57            6.0798    10.0439    -0.5185 H       
  58 H58            4.2586     8.6582    -1.4265 H       
@<TRIPOS>BOND
   1    1    2 ar
   2    1    6 ar
   3    1   35 1
   4    2    3 ar
   5    2   36 1
   6    3    4 ar
   7    3   32 1
   8    4    5 ar
   9    4   37 1
  10    5    7 1
  11    5    6 ar
  12    6   10 1
  13    7    8 1
  14    7   38 1
  15    8    9 1
  16    8   12 1
  17    8   11 1
  18    9   10 am
  19    9   16 1
  20   10   31 2
  21   11   15 1
  22   11   39 1
  23   11   40 1
  24   12   13 1
  25   12   41 1
  26   12   42 1
  27   13   14 1
  28   13   43 1
  29   13   44 1
  30   14   15 1
  31   14   24 1
  32   15   45 1
  33   15   46 1
  34   16   17 ar
  35   16   21 ar
  36   17   18 ar
  37   17   47 1
  38   18   19 ar
  39   18   48 1
  40   19   20 ar
  41   19   23 1
  42   20   21 ar
  43   20   49 1
  44   21   50 1
  45   22   23 1
  46   22   51 1
  47   22   52 1
  48   22   53 1
  49   24   25 1
  50   24   54 1
  51   24   55 1
  52   25   26 ar
  53   25   30 ar
  54   26   27 ar
  55   26   56 1
  56   27   28 ar
  57   27   34 1
  58   28   29 ar
  59   28   33 1
  60   29   30 ar
  61   29   57 1
  62   30   58 1

#	End of record

