#	Name: ASD00840863
#	Creating user name:	WinNT
#	Creation time:	15. 06. 2019 18:40

#	Modifying user name:	WinNT
#	Modification time:	15. 06. 2019 18:40

#	Program:	/corina/corina34_cracker 3.40 0067  02.08.2006

@<TRIPOS>MOLECULE
ASD00840863
 102  107    0    0    0
SMALL
NO_CHARGES


@<TRIPOS>ATOM
   1 F1             5.9964    -1.9385    -2.1175 F       
   2 N2             0.9814     1.4270    -0.8286 N.ar    
   3 C3             1.2577     0.1363    -0.9116 C.ar    
   4 C4             1.1995    -0.6739     0.2153 C.ar    
   5 C5             0.8478    -0.1130     1.4304 C.ar    
   6 C6             0.5653     1.2455     1.4755 C.ar    
   7 C7             0.6431     1.9904     0.3158 C.ar    
   8 C8             1.5146    -2.1442     0.1157 C.3     
   9 C9             1.2590    -2.8321     1.4396 C.2     
  10 C10            0.6867    -2.7944    -0.9946 C.3     
  11 C11           -0.7749    -2.5084    -0.7644 C.2     
  12 N12           -1.7031    -3.0433    -1.5821 N.am    
  13 O13           -1.1158    -1.7970     0.1567 O.2     
  14 C14           -3.1204    -2.6817    -1.4436 C.3     
  15 C15           -3.9452    -3.9650    -1.3031 C.3     
  16 C16           -3.6454    -4.8912    -2.4839 C.3     
  17 C17           -2.1619    -5.2671    -2.4757 C.3     
  18 C18           -1.3162    -3.9943    -2.6331 C.3     
  19 C19           -4.4932    -6.1592    -2.3652 C.3     
  20 C20           -5.9779    -5.7848    -2.3750 C.3     
  21 C21           -6.8211    -7.0607    -2.3175 C.3     
  22 N22           -6.5046    -7.9106    -3.4724 N.3     
  23 C23           -5.0949    -8.3217    -3.4586 C.3     
  24 C24           -4.2002    -7.0835    -3.5502 C.3     
  25 C25           -7.3932    -9.0792    -3.5253 C.3     
  26 O26            0.1955    -2.9085     2.0177 O.2     
  27 N27            2.4305    -3.3424     1.8543 N.am    
  28 C28            2.9918    -2.3538    -0.1294 C.ar    
  29 C29            3.4687    -3.0800     0.9571 C.ar    
  30 C30            3.8307    -1.9724    -1.1533 C.ar    
  31 C31            5.1721    -2.3108    -1.1140 C.ar    
  32 C32            5.6693    -3.0407    -0.0295 C.ar    
  33 C33            4.8145    -3.4239     1.0037 C.ar    
  34 C34            2.3449    -5.8869     2.8995 C.ar    
  35 C35            1.0900    -6.3117     2.4874 C.ar    
  36 C36            3.3793    -6.7959     3.0169 C.ar    
  37 C37            3.1669    -8.1292     2.7240 C.ar    
  38 C38            1.9134    -8.5591     2.3114 C.ar    
  39 C39            0.8742    -7.6495     2.1933 C.ar    
  40 O40            1.7049    -9.8708     2.0239 O.3     
  41 O41            0.0731    -5.4176     2.3726 O.3     
  42 C42            2.8207   -10.7519     2.1681 C.3     
  43 C43           -1.1918    -5.9252     1.9432 C.3     
  44 C44           -2.2040    -4.7800     1.8740 C.3     
  45 C45           -7.2061    -9.8021    -4.8607 C.3     
  46 C46           -8.1317   -11.0191    -4.9158 C.3     
  47 S47            2.6219    -4.1860     3.2665 S.o2    
  48 O48            3.9932    -4.0700     3.6205 O.2     
  49 O49            1.5615    -3.7822     4.1219 O.2     
  50 O50            1.6008    -0.4017    -2.1090 O.3     
  51 C51            2.0660    -0.2837    -4.4776 C.3     
  52 C52            1.5342     0.4573    -3.2491 C.3     
  53 C53            7.0558    -3.3952     0.0197 C.1     
  54 N54            8.1558    -3.6764     0.0587 N.1     
  55 H55            0.7939    -0.7182     2.3232 H       
  56 H56            0.2873     1.7146     2.4077 H       
  57 H57            0.4247     3.0476     0.3455 H       
  58 H58            0.9891    -2.3870    -1.9593 H       
  59 H59            0.8517    -3.8718    -0.9873 H       
  60 H60           -3.2545    -2.0622    -0.5568 H       
  61 H61           -3.4457    -2.1332    -2.3276 H       
  62 H62           -3.6823    -4.4663    -0.3716 H       
  63 H63           -5.0065    -3.7164    -1.2960 H       
  64 H64           -3.8853    -4.3801    -3.4163 H       
  65 H65           -1.9157    -5.7562    -1.5332 H       
  66 H66           -1.9539    -5.9454    -3.3032 H       
  67 H67           -1.4956    -3.5555    -3.6146 H       
  68 H68           -0.2599    -4.2423    -2.5289 H       
  69 H69           -4.2531    -6.6721    -1.4339 H       
  70 H70           -6.2017    -5.1614    -1.5094 H       
  71 H71           -6.2090    -5.2368    -3.2884 H       
  72 H72           -6.5996    -7.6012    -1.3972 H       
  73 H73           -7.8788    -6.7982    -2.3387 H       
  74 H74           -4.8815    -8.8563    -2.5330 H       
  75 H75           -4.8988    -8.9752    -4.3087 H       
  76 H76           -4.4033    -6.5559    -4.4822 H       
  77 H77           -3.1538    -7.3879    -3.5243 H       
  78 H78           -7.1502    -9.7578    -2.7076 H       
  79 H79           -8.4289    -8.7526    -3.4309 H       
  80 H80            3.4409    -1.4089    -1.9881 H       
  81 H81            5.1988    -3.9876     1.8409 H       
  82 H82            4.3554    -6.4633     3.3378 H       
  83 H83            3.9770    -8.8375     2.8159 H       
  84 H84           -0.1020    -7.9821     1.8728 H       
  85 H85            2.5187   -11.7663     1.9079 H       
  86 H86            3.6249   -10.4311     1.5059 H       
  87 H87            3.1697   -10.7302     3.2005 H       
  88 H88           -1.0861    -6.3768     0.9568 H       
  89 H89           -1.5411    -6.6766     2.6513 H       
  90 H90           -1.8547    -4.0286     1.1658 H       
  91 H91           -3.1689    -5.1672     1.5464 H       
  92 H92           -2.3097    -4.3283     2.8603 H       
  93 H93           -7.4491    -9.1235    -5.6784 H       
  94 H94           -6.1705   -10.1286    -4.9551 H       
  95 H95           -9.1673   -10.6926    -4.8214 H       
  96 H96           -7.9984   -11.5341    -5.8672 H       
  97 H97           -7.8887   -11.6977    -4.0982 H       
  98 H98            2.0972     0.3979    -5.3276 H       
  99 H99            3.0702    -0.6542    -4.2719 H       
 100 H100           1.4094    -1.1225    -4.7084 H       
 101 H101           0.4991     0.7516    -3.4222 H       
 102 H102           2.1396     1.3459    -3.0704 H       
@<TRIPOS>BOND
   1    1   31 1
   2    2    3 ar
   3    2    7 ar
   4    3    4 ar
   5    3   50 1
   6    4    5 ar
   7    4    8 1
   8    5    6 ar
   9    5   55 1
  10    6    7 ar
  11    6   56 1
  12    7   57 1
  13    8    9 1
  14    8   10 1
  15    8   28 1
  16    9   26 2
  17    9   27 am
  18   10   11 1
  19   10   58 1
  20   10   59 1
  21   11   12 am
  22   11   13 2
  23   12   14 1
  24   12   18 1
  25   14   15 1
  26   14   60 1
  27   14   61 1
  28   15   16 1
  29   15   62 1
  30   15   63 1
  31   16   17 1
  32   16   19 1
  33   16   64 1
  34   17   18 1
  35   17   65 1
  36   17   66 1
  37   18   67 1
  38   18   68 1
  39   19   20 1
  40   19   24 1
  41   19   69 1
  42   20   21 1
  43   20   70 1
  44   20   71 1
  45   21   22 1
  46   21   72 1
  47   21   73 1
  48   22   23 1
  49   22   25 1
  50   23   24 1
  51   23   74 1
  52   23   75 1
  53   24   76 1
  54   24   77 1
  55   25   45 1
  56   25   78 1
  57   25   79 1
  58   27   47 am
  59   27   29 1
  60   28   29 ar
  61   28   30 ar
  62   29   33 ar
  63   30   31 ar
  64   30   80 1
  65   31   32 ar
  66   32   33 ar
  67   32   53 1
  68   33   81 1
  69   34   35 ar
  70   34   36 ar
  71   34   47 1
  72   35   41 1
  73   35   39 ar
  74   36   37 ar
  75   36   82 1
  76   37   38 ar
  77   37   83 1
  78   38   39 ar
  79   38   40 1
  80   39   84 1
  81   40   42 1
  82   41   43 1
  83   42   85 1
  84   42   86 1
  85   42   87 1
  86   43   44 1
  87   43   88 1
  88   43   89 1
  89   44   90 1
  90   44   91 1
  91   44   92 1
  92   45   46 1
  93   45   93 1
  94   45   94 1
  95   46   95 1
  96   46   96 1
  97   46   97 1
  98   47   48 2
  99   47   49 2
 100   50   52 1
 101   51   52 1
 102   51   98 1
 103   51   99 1
 104   51  100 1
 105   52  101 1
 106   52  102 1
 107   53   54 3

#	End of record

