#	Name: ASD07301081
#	Creating user name:	WinNT
#	Creation time:	15. 06. 2019 21:10

#	Modifying user name:	WinNT
#	Modification time:	15. 06. 2019 21:10

#	Program:	/corina/corina34_cracker 3.40 0067  02.08.2006

@<TRIPOS>MOLECULE
ASD07301081
  38   39    0    0    0
SMALL
NO_CHARGES


@<TRIPOS>ATOM
   1 C1            -0.0179     1.4672     0.0101 C.2     
   2 C2             0.0021    -0.0041     0.0020 C.2     
   3 C3             1.2726    -0.6350    -0.0135 C.2     
   4 C4             2.3716     0.1567    -0.0197 C.2     
   5 N5             2.2550     1.5070    -0.0114 N.pl3   
   6 N6             1.1271     2.1159     0.0027 N.2     
   7 O7            -1.0315    -0.6546     0.0088 O.2     
   8 C8             3.4243     2.2747    -0.0184 C.ar    
   9 C9             3.6372     3.2281     0.9696 C.ar    
  10 C10            4.7927     3.9838     0.9600 C.ar    
  11 C11            5.7377     3.7927    -0.0318 C.ar    
  12 C12            5.5287     2.8451    -1.0169 C.ar    
  13 C13            4.3777     2.0817    -1.0099 C.ar    
  14 C14            2.6080     3.4373     2.0503 C.3     
  15 C15           -1.3001     2.2028     0.0202 C.2     
  16 C16           -1.3039     3.6153     0.0279 C.2     
  17 C17           -2.4767     4.2882     0.0372 C.2     
  18 O18           -2.3535     1.5907     0.0219 O.2     
  19 N19           -2.4804     5.6534     0.0446 N.pl3   
  20 C20           -1.2136     6.3894     0.0426 C.3     
  21 C21           -3.7511     6.3824     0.0546 C.3     
  22 H22            1.3606    -1.7114    -0.0198 H       
  23 H23            3.3532    -0.2936    -0.0312 H       
  24 H24            4.9587     4.7253     1.7275 H       
  25 H25            6.6407     4.3852    -0.0370 H       
  26 H26            6.2684     2.6987    -1.7901 H       
  27 H27            4.2172     1.3387    -1.7770 H       
  28 H28            2.8268     2.7807     2.8925 H       
  29 H29            2.6355     4.4752     2.3822 H       
  30 H30            1.6174     3.2073     1.6581 H       
  31 H31           -0.3701     4.1579     0.0264 H       
  32 H32           -3.4105     3.7456     0.0387 H       
  33 H33           -0.9044     6.5775    -0.9856 H       
  34 H34           -1.3441     7.3386     0.5622 H       
  35 H35           -0.4500     5.7996     0.5496 H       
  36 H36           -4.5776     5.6718     0.0547 H       
  37 H37           -3.8062     7.0041     0.9483 H       
  38 H38           -3.8147     7.0137    -0.8316 H       
@<TRIPOS>BOND
   1    1    2 1
   2    1    6 2
   3    1   15 1
   4    2    3 1
   5    2    7 2
   6    3    4 2
   7    3   22 1
   8    4    5 1
   9    4   23 1
  10    5    6 1
  11    5    8 1
  12    8    9 ar
  13    8   13 ar
  14    9   10 ar
  15    9   14 1
  16   10   11 ar
  17   10   24 1
  18   11   12 ar
  19   11   25 1
  20   12   13 ar
  21   12   26 1
  22   13   27 1
  23   14   28 1
  24   14   29 1
  25   14   30 1
  26   15   16 1
  27   15   18 2
  28   16   17 2
  29   16   31 1
  30   17   19 1
  31   17   32 1
  32   19   20 1
  33   19   21 1
  34   20   33 1
  35   20   34 1
  36   20   35 1
  37   21   36 1
  38   21   37 1
  39   21   38 1

#	End of record

