#	Name: ASD01884677
#	Creating user name:	WinNT
#	Creation time:	15. 06. 2019 19:48

#	Modifying user name:	WinNT
#	Modification time:	15. 06. 2019 19:48

#	Program:	/corina/corina34_cracker 3.40 0067  02.08.2006

@<TRIPOS>MOLECULE
ASD01884677
  44   46    0    0    0
SMALL
NO_CHARGES


@<TRIPOS>ATOM
   1 C1            -0.0535     1.3499    -0.0185 C.2     
   2 C2            -0.0285    -0.0109    -0.0241 C.2     
   3 C3             1.2191    -0.6747    -0.0230 C.2     
   4 C4             2.3808     0.0636    -0.0165 C.2     
   5 N5             2.3345     1.4122    -0.0106 N.am    
   6 C6             1.1578     2.0648    -0.0119 C.2     
   7 O7             1.1414     3.2848    -0.0065 O.2     
   8 C8             1.2762    -2.1550    -0.0285 C.ar    
   9 C9             3.5839     2.1771    -0.0032 C.3     
  10 C10            4.0168     2.4458    -1.4215 C.ar    
  11 C11            3.5895     3.5906    -2.0684 C.ar    
  12 C12            3.9850     3.8391    -3.3685 C.ar    
  13 C13            4.8116     2.9389    -4.0250 C.ar    
  14 C14            5.2390     1.7910    -3.3737 C.ar    
  15 C15            4.8453     1.5498    -2.0716 C.ar    
  16 O16            5.2016     3.1809    -5.3041 O.3     
  17 C17            0.7891    -2.8754     1.0640 C.ar    
  18 C18            1.8119    -2.8279    -1.1285 C.ar    
  19 C19            1.8656    -4.1923    -1.1358 C.ar    
  20 C20            1.3828    -4.9169    -0.0387 C.ar    
  21 C21            0.8411    -4.2400     1.0614 C.ar    
  22 C22            1.4390    -6.3847    -0.0443 C.2     
  23 C23            6.0529     2.2107    -5.9174 C.3     
  24 C24            1.0362    -7.1589     1.1843 C.3     
  25 O25            1.8097    -6.9736    -1.0378 O.2     
  26 H26           -0.9962     1.8769    -0.0237 H       
  27 H27           -0.9492    -0.5755    -0.0288 H       
  28 H28            3.3362    -0.4401    -0.0157 H       
  29 H29            3.4274     3.1235     0.5144 H       
  30 H30            4.3568     1.6055     0.5105 H       
  31 H31            2.9457     4.2909    -1.5570 H       
  32 H32            3.6506     4.7333    -3.8735 H       
  33 H33            5.8825     1.0887    -3.8826 H       
  34 H34            5.1777     0.6563    -1.5641 H       
  35 H35            0.3711    -2.3530     1.9118 H       
  36 H36            2.1838    -2.2687    -1.9744 H       
  37 H37            2.2798    -4.7124    -1.9870 H       
  38 H38            0.4682    -4.7967     1.9084 H       
  39 H39            6.9744     2.1206    -5.3423 H       
  40 H40            5.5451     1.2466    -5.9435 H       
  41 H41            6.2884     2.5250    -6.9342 H       
  42 H42            0.8261    -6.4651     1.9982 H       
  43 H43            0.1436    -7.7457     0.9675 H       
  44 H44            1.8476    -7.8259     1.4757 H       
@<TRIPOS>BOND
   1    1    2 2
   2    1    6 1
   3    1   26 1
   4    2    3 1
   5    2   27 1
   6    3    4 2
   7    3    8 1
   8    4    5 1
   9    4   28 1
  10    5    6 am
  11    5    9 1
  12    6    7 2
  13    8   17 ar
  14    8   18 ar
  15    9   10 1
  16    9   29 1
  17    9   30 1
  18   10   11 ar
  19   10   15 ar
  20   11   12 ar
  21   11   31 1
  22   12   13 ar
  23   12   32 1
  24   13   14 ar
  25   13   16 1
  26   14   15 ar
  27   14   33 1
  28   15   34 1
  29   16   23 1
  30   17   21 ar
  31   17   35 1
  32   18   19 ar
  33   18   36 1
  34   19   20 ar
  35   19   37 1
  36   20   21 ar
  37   20   22 1
  38   21   38 1
  39   22   24 1
  40   22   25 2
  41   23   39 1
  42   23   40 1
  43   23   41 1
  44   24   42 1
  45   24   43 1
  46   24   44 1

#	End of record

