#	Name: ASD08150205
#	Creating user name:	WinNT
#	Creation time:	15. 06. 2019 21:15

#	Modifying user name:	WinNT
#	Modification time:	15. 06. 2019 21:15

#	Program:	/corina/corina34_cracker 3.40 0067  02.08.2006

@<TRIPOS>MOLECULE
ASD08150205
  68   73    0    0    0
SMALL
NO_CHARGES


@<TRIPOS>ATOM
   1 N1             0.0070     1.4210     0.0501 N.2     
   2 C2            -0.0729     0.1262    -0.0072 C.2     
   3 N3             1.0139    -0.6866    -0.0970 N.am    
   4 C4             2.2625    -0.1654    -0.1321 C.2     
   5 C5             2.3872     1.2979    -0.0694 C.ar    
   6 C6             3.6269     1.9338    -0.0992 C.ar    
   7 C7             3.6862     3.3087    -0.0380 C.ar    
   8 C8             2.5232     4.0625     0.0531 C.ar    
   9 C9             1.2888     3.4540     0.0843 C.ar    
  10 C10            1.2023     2.0615     0.0232 C.ar    
  11 O11            3.2443    -0.8808    -0.2120 O.2     
  12 C12            0.8394    -2.0763    -0.1534 C.ar    
  13 C13            0.8100    -2.8250     1.0215 C.ar    
  14 C14            0.6367    -4.1981     0.9596 C.ar    
  15 C15            0.4935    -4.8225    -0.2657 C.ar    
  16 C16            0.5230    -4.0803    -1.4318 C.ar    
  17 C17            0.6897    -2.7093    -1.3784 C.ar    
  18 O18            0.9514    -2.2096     2.2254 O.3     
  19 C19            0.9111    -3.0404     3.3874 C.3     
  20 C20            1.0859    -2.1767     4.6381 C.3     
  21 N21            1.2095    -2.2568     7.1103 N.3     
  22 C22            0.9197    -3.0465     5.8858 C.3     
  23 C23           -0.5520    -3.4846     6.0446 C.3     
  24 C24           -0.8182    -3.4523     7.5638 C.3     
  25 C25            0.5152    -2.9974     8.1950 C.3     
  26 C26            2.6550    -2.1872     7.3621 C.3     
  27 C27            4.8936     1.1231    -0.1970 C.3     
  28 C28           -1.4394    -0.5083     0.0282 C.3     
  29 N29           -3.9045     1.9259     0.9936 N.2     
  30 C30           -3.0392     0.9948     1.2729 C.2     
  31 N31           -2.4609     0.5373     0.1264 N.pl3   
  32 C32           -3.0105     1.2360    -0.9187 C.ar    
  33 N33           -2.8498     1.2320    -2.2378 N.ar    
  34 C34           -3.5465     2.0477    -3.0010 C.ar    
  35 N35           -4.4271     2.8998    -2.5091 N.ar    
  36 C36           -4.6557     2.9757    -1.2020 C.ar    
  37 C37           -3.9364     2.1246    -0.3461 C.ar    
  38 N38           -5.5803     3.8723    -0.6957 N.pl3   
  39 H39            4.6452     3.8047    -0.0608 H       
  40 H40            2.5881     5.1395     0.1005 H       
  41 H41            0.3914     4.0507     0.1561 H       
  42 H42            0.6139    -4.7810     1.8685 H       
  43 H43            0.3585    -5.8930    -0.3120 H       
  44 H44            0.4114    -4.5726    -2.3865 H       
  45 H45            0.7079    -2.1315    -2.2907 H       
  46 H46           -0.0484    -3.5554     3.4327 H       
  47 H47            1.7154    -3.7743     3.3373 H       
  48 H48            2.0806    -1.7310     4.6358 H       
  49 H49            0.3341    -1.3875     4.6427 H       
  50 H50            1.5736    -3.9170     5.8313 H       
  51 H51           -1.2124    -2.7869     5.5297 H       
  52 H52           -0.6904    -4.4941     5.6575 H       
  53 H53           -1.6092    -2.7387     7.7944 H       
  54 H54           -1.0872    -4.4459     7.9222 H       
  55 H55            1.1043    -3.8612     8.5029 H       
  56 H56            0.3290    -2.3407     9.0448 H       
  57 H57            3.1378    -1.6333     6.5569 H       
  58 H58            2.8347    -1.6804     8.3103 H       
  59 H59            3.0652    -3.1961     7.4059 H       
  60 H60            5.0879     0.8772    -1.2409 H       
  61 H61            5.7270     1.7018     0.2012 H       
  62 H62            4.7819     0.2039     0.3781 H       
  63 H63           -1.5961    -1.0848    -0.8835 H       
  64 H64           -1.5112    -1.1686     0.8925 H       
  65 H65           -2.8125     0.6376     2.2666 H       
  66 H66           -3.3918     2.0189    -4.0695 H       
  67 H67           -6.0703     4.4549    -1.2968 H       
  68 H68           -5.7382     3.9183     0.2602 H       
@<TRIPOS>BOND
   1    1    2 2
   2    1   10 1
   3    2    3 1
   4    2   28 1
   5    3    4 am
   6    3   12 1
   7    4    5 1
   8    4   11 2
   9    5    6 ar
  10    5   10 ar
  11    6    7 ar
  12    6   27 1
  13    7    8 ar
  14    7   39 1
  15    8    9 ar
  16    8   40 1
  17    9   10 ar
  18    9   41 1
  19   12   13 ar
  20   12   17 ar
  21   13   14 ar
  22   13   18 1
  23   14   15 ar
  24   14   42 1
  25   15   16 ar
  26   15   43 1
  27   16   17 ar
  28   16   44 1
  29   17   45 1
  30   18   19 1
  31   19   20 1
  32   19   46 1
  33   19   47 1
  34   20   22 1
  35   20   48 1
  36   20   49 1
  37   21   22 1
  38   21   25 1
  39   21   26 1
  40   22   23 1
  41   22   50 1
  42   23   24 1
  43   23   51 1
  44   23   52 1
  45   24   25 1
  46   24   53 1
  47   24   54 1
  48   25   55 1
  49   25   56 1
  50   26   57 1
  51   26   58 1
  52   26   59 1
  53   27   60 1
  54   27   61 1
  55   27   62 1
  56   28   31 1
  57   28   63 1
  58   28   64 1
  59   29   30 2
  60   29   37 1
  61   30   31 1
  62   30   65 1
  63   31   32 1
  64   32   33 ar
  65   32   37 ar
  66   33   34 ar
  67   34   35 ar
  68   34   66 1
  69   35   36 ar
  70   36   37 ar
  71   36   38 1
  72   38   67 1
  73   38   68 1

#	End of record

