#	Name: ASD01209075
#	Creating user name:	WinNT
#	Creation time:	15. 06. 2019 19:10

#	Modifying user name:	WinNT
#	Modification time:	15. 06. 2019 19:10

#	Program:	/corina/corina34_cracker 3.40 0067  02.08.2006

@<TRIPOS>MOLECULE
ASD01209075
  50   52    0    0    0
SMALL
NO_CHARGES


@<TRIPOS>ATOM
   1 C1            -0.0292     1.3230    -0.1651 C.ar    
   2 C2            -0.1067    -0.0621    -0.1347 C.ar    
   3 C3            -1.3355    -0.6904     0.0147 C.ar    
   4 C4            -2.4910     0.0628     0.1338 C.ar    
   5 C5            -2.4185     1.4587     0.1038 C.ar    
   6 C6            -1.1780     2.0862    -0.0411 C.ar    
   7 O7             1.1771     1.9318    -0.3112 O.3     
   8 C8             1.8271     1.7824    -1.4927 C.ar    
   9 C9            -3.6438     2.2647     0.2295 C.2     
  10 O10           -4.7183     1.7182     0.3592 O.2     
  11 C11           -3.5626     3.7692     0.1968 C.3     
  12 C12           -4.9007     4.3420    -0.2748 C.3     
  13 C13           -3.2494     4.2936     1.5996 C.3     
  14 O14           -1.4044    -2.0473     0.0436 O.3     
  15 C15           -2.0102    -2.6777    -0.9966 C.ar    
  16 C16           -2.2217    -4.0482    -0.9508 C.ar    
  17 C17           -2.8383    -4.6865    -2.0094 C.ar    
  18 C18           -3.2441    -3.9609    -3.1142 C.ar    
  19 C19           -3.0341    -2.5951    -3.1626 C.ar    
  20 C20           -2.4236    -1.9510    -2.1040 C.ar    
  21 S21           -4.0297    -4.7783    -4.4630 S.o2    
  22 O22           -3.7478    -3.9531    -5.5850 O.2     
  23 O23           -3.5452    -6.1124    -4.3946 O.2     
  24 N24            1.3209     0.9902    -2.4231 N.ar    
  25 C25            1.9205     0.8166    -3.5857 C.ar    
  26 C26            3.1071     1.4611    -3.8732 C.ar    
  27 C27            3.6712     2.3014    -2.9229 C.ar    
  28 C28            3.0151     2.4673    -1.7159 C.ar    
  29 C29           -5.7973    -4.7215    -4.0592 C.3     
  30 H30            0.7922    -0.6535    -0.2280 H       
  31 H31           -3.4465    -0.4269     0.2493 H       
  32 H32           -1.1165     3.1642    -0.0649 H       
  33 H33           -2.7739     4.0757    -0.4902 H       
  34 H34           -5.6895     4.0355     0.4123 H       
  35 H35           -4.8420     5.4302    -0.2984 H       
  36 H36           -5.1239     3.9684    -1.2741 H       
  37 H37           -4.0381     3.9871     2.2866 H       
  38 H38           -2.2961     3.8855     1.9355 H       
  39 H39           -3.1907     5.3818     1.5760 H       
  40 H40           -1.9043    -4.6156    -0.0883 H       
  41 H41           -3.0031    -5.7533    -1.9742 H       
  42 H42           -3.3518    -2.0307    -4.0269 H       
  43 H43           -2.2598    -0.8842    -2.1423 H       
  44 H44            1.4775     0.1619    -4.3216 H       
  45 H45            3.5915     1.3128    -4.8270 H       
  46 H46            4.5987     2.8173    -3.1228 H       
  47 H47            3.4254     3.1138    -0.9543 H       
  48 H48           -6.1167    -3.6831    -3.9709 H       
  49 H49           -6.3665    -5.2107    -4.8497 H       
  50 H50           -5.9709    -5.2367    -3.1144 H       
@<TRIPOS>BOND
   1    1    2 ar
   2    1    7 1
   3    1    6 ar
   4    2    3 ar
   5    2   30 1
   6    3    4 ar
   7    3   14 1
   8    4    5 ar
   9    4   31 1
  10    5    6 ar
  11    5    9 1
  12    6   32 1
  13    7    8 1
  14    8   24 ar
  15    8   28 ar
  16    9   10 2
  17    9   11 1
  18   11   12 1
  19   11   13 1
  20   11   33 1
  21   12   34 1
  22   12   35 1
  23   12   36 1
  24   13   37 1
  25   13   38 1
  26   13   39 1
  27   14   15 1
  28   15   16 ar
  29   15   20 ar
  30   16   17 ar
  31   16   40 1
  32   17   18 ar
  33   17   41 1
  34   18   19 ar
  35   18   21 1
  36   19   20 ar
  37   19   42 1
  38   20   43 1
  39   21   22 2
  40   21   23 2
  41   21   29 1
  42   24   25 ar
  43   25   26 ar
  44   25   44 1
  45   26   27 ar
  46   26   45 1
  47   27   28 ar
  48   27   46 1
  49   28   47 1
  50   29   48 1
  51   29   49 1
  52   29   50 1

#	End of record

