#	Name: ASD01190229
#	Creating user name:	WinNT
#	Creation time:	15. 06. 2019 19:08

#	Modifying user name:	WinNT
#	Modification time:	15. 06. 2019 19:08

#	Program:	/corina/corina34_cracker 3.40 0067  02.08.2006

@<TRIPOS>MOLECULE
ASD01190229
  54   57    0    0    0
SMALL
NO_CHARGES


@<TRIPOS>ATOM
   1 N1             0.3230     1.2127    -0.4153 N.pl3   
   2 C2             0.3673    -0.0394    -0.9856 C.2     
   3 C3             1.6796    -0.4613    -0.9598 C.2     
   4 C4             2.4275     0.5587    -0.3633 C.2     
   5 C5             1.5779     1.5636    -0.0424 C.2     
   6 C6            -0.7738    -0.7885    -1.5224 C.2     
   7 O7            -1.9019    -0.3482    -1.4013 O.2     
   8 N8            -0.5731    -1.9643    -2.1497 N.am    
   9 C9            -1.6981    -2.6602    -2.7792 C.3     
  10 C10            3.9146     0.5424    -0.1200 C.3     
  11 C11            4.6434     0.2570    -1.4347 C.3     
  12 O12            4.3281     1.8124     0.3879 O.3     
  13 N13            5.0424    -3.6440     3.4594 N.pl3   
  14 N14            4.4802    -4.7022     2.7377 N.2     
  15 C15            3.9754    -4.2633     1.6196 C.2     
  16 C16            4.1999    -2.8223     1.5633 C.ar    
  17 C17            3.8903    -1.8253     0.6314 C.ar    
  18 C18            4.2478    -0.5323     0.8826 C.ar    
  19 C19            4.9166    -0.1974     2.0537 C.ar    
  20 C20            5.2300    -1.1532     2.9782 C.ar    
  21 C21            4.8777    -2.4805     2.7496 C.ar    
  22 C22            5.6675    -3.7530     4.7083 C.ar    
  23 C23            5.2002    -4.6685     5.6422 C.ar    
  24 C24            5.8178    -4.7743     6.8728 C.ar    
  25 C25            6.9024    -3.9684     7.1760 C.ar    
  26 C26            7.3699    -3.0548     6.2461 C.ar    
  27 C27            6.7588    -2.9498     5.0122 C.ar    
  28 F28            7.5049    -4.0732     8.3806 F       
  29 F29            4.3341     1.2547    -2.3654 F       
  30 F30            6.0240     0.2419    -1.2088 F       
  31 F31            4.2386    -0.9864    -1.9320 F       
  32 C32           -0.8795     2.0321    -0.2454 C.3     
  33 C33           -1.6089     1.6013     1.0009 C.2     
  34 C34           -1.8925     2.4797     1.9305 C.2     
  35 H35            2.0586    -1.4023    -1.3303 H       
  36 H36            1.8551     2.4928     0.4330 H       
  37 H37            0.3163    -2.3499    -2.1844 H       
  38 H38           -2.4514    -2.8891    -2.0253 H       
  39 H39           -2.1353    -2.0229    -3.5478 H       
  40 H40           -1.3448    -3.5862    -3.2326 H       
  41 H41            3.9052     2.0591     1.2218 H       
  42 H42            3.4794    -4.8596     0.8681 H       
  43 H43            3.3715    -2.0777    -0.2816 H       
  44 H44            5.1922     0.8309     2.2351 H       
  45 H45            5.7503    -0.8797     3.8843 H       
  46 H46            4.3541    -5.2970     5.4063 H       
  47 H47            5.4544    -5.4859     7.5995 H       
  48 H48            8.2157    -2.4270     6.4846 H       
  49 H49            7.1267    -2.2406     4.2855 H       
  50 H50           -0.5950     3.0805    -0.1559 H       
  51 H51           -1.5310     1.9049    -1.1100 H       
  52 H52           -1.8979     0.5685     1.1277 H       
  53 H53           -1.6035     3.5125     1.8037 H       
  54 H54           -2.4153     2.1710     2.8237 H       
@<TRIPOS>BOND
   1    1    2 1
   2    1    5 1
   3    1   32 1
   4    2    3 2
   5    2    6 1
   6    3    4 1
   7    3   35 1
   8    4    5 2
   9    4   10 1
  10    5   36 1
  11    6    7 2
  12    6    8 am
  13    8    9 1
  14    8   37 1
  15    9   38 1
  16    9   39 1
  17    9   40 1
  18   10   11 1
  19   10   12 1
  20   10   18 1
  21   11   29 1
  22   11   30 1
  23   11   31 1
  24   12   41 1
  25   13   14 1
  26   13   21 1
  27   13   22 1
  28   14   15 2
  29   15   16 1
  30   15   42 1
  31   16   17 ar
  32   16   21 ar
  33   17   18 ar
  34   17   43 1
  35   18   19 ar
  36   19   20 ar
  37   19   44 1
  38   20   21 ar
  39   20   45 1
  40   22   23 ar
  41   22   27 ar
  42   23   24 ar
  43   23   46 1
  44   24   25 ar
  45   24   47 1
  46   25   26 ar
  47   25   28 1
  48   26   27 ar
  49   26   48 1
  50   27   49 1
  51   32   33 1
  52   32   50 1
  53   32   51 1
  54   33   34 2
  55   33   52 1
  56   34   53 1
  57   34   54 1

#	End of record

