#	Name: ASD02038847
#	Creating user name:	WinNT
#	Creation time:	15. 06. 2019 20:17

#	Modifying user name:	WinNT
#	Modification time:	15. 06. 2019 20:17

#	Program:	/corina/corina34_cracker 3.40 0067  02.08.2006

@<TRIPOS>MOLECULE
ASD02038847
  56   58    0    0    0
SMALL
NO_CHARGES


@<TRIPOS>ATOM
   1 C1            -0.1455     1.2386    -1.2297 C.2     
   2 C2            -0.1120    -0.1406    -0.7129 C.2     
   3 N3             1.0689    -0.7659    -0.5368 N.am    
   4 C4             1.1059    -2.1132     0.0372 C.3     
   5 C5             1.5290    -3.1147    -1.0393 C.3     
   6 C6             2.3154    -0.0981    -0.9195 C.3     
   7 C7             2.6345     1.0090     0.0899 C.3     
   8 C8             3.9774     1.6482    -0.2729 C.3     
   9 O9             4.9929     0.6429    -0.2896 O.3     
  10 C10            4.7719    -0.3939    -1.2480 C.3     
  11 C11            3.4609    -1.1151    -0.9242 C.3     
  12 O12           -1.1501    -0.7150    -0.4451 O.2     
  13 N13            0.9165     1.9504    -1.6862 N.2     
  14 C14            0.5050     3.1275    -2.0599 C.2     
  15 N15           -0.8354     3.2127    -1.8564 N.pl3   
  16 C16           -1.2502     2.0310    -1.3421 C.2     
  17 C17           -1.6814     4.3728    -2.1472 C.3     
  18 C18            0.7004    -2.8992    -2.2794 C.ar    
  19 C19            1.1929    -2.1263    -3.3128 C.ar    
  20 C20            0.4297    -1.9287    -4.4545 C.ar    
  21 C21           -0.8266    -2.5081    -4.5550 C.ar    
  22 C22           -1.3148    -3.2804    -3.5186 C.ar    
  23 C23           -0.5502    -3.4801    -2.3843 C.ar    
  24 C24            2.0959    -2.1483     1.1729 C.2     
  25 O25            2.5772    -1.1203     1.5868 O.2     
  26 O26            2.4429    -3.3217     1.7247 O.3     
  27 C27            3.4015    -3.2798     2.8144 C.3     
  28 O28            0.9119    -1.1683    -5.4724 O.3     
  29 C29            0.0715    -1.0079    -6.6170 C.3     
  30 F30           -1.1299    -0.4029    -6.2323 F       
  31 F31            0.7178    -0.2027    -7.5610 F       
  32 F32           -0.1963    -2.2612    -7.1782 F       
  33 H33            0.1161    -2.3768     0.4098 H       
  34 H34            2.5829    -2.9694    -1.2767 H       
  35 H35            1.3759    -4.1294    -0.6718 H       
  36 H36            2.2067     0.3352    -1.9137 H       
  37 H37            1.8508     1.7660     0.0601 H       
  38 H38            2.6926     0.5830     1.0916 H       
  39 H39            3.9061     2.1092    -1.2580 H       
  40 H40            4.2300     2.4079     0.4667 H       
  41 H41            4.7110     0.0405    -2.2458 H       
  42 H42            5.5969    -1.1052    -1.2107 H       
  43 H43            3.5358    -1.5840     0.0569 H       
  44 H44            3.2683    -1.8771    -1.6794 H       
  45 H45            1.1287     3.9102    -2.4659 H       
  46 H46           -2.2610     1.7686    -1.0667 H       
  47 H47           -2.0583     4.3010    -3.1675 H       
  48 H48           -2.5196     4.3950    -1.4509 H       
  49 H49           -1.0956     5.2857    -2.0398 H       
  50 H50            2.1712    -1.6759    -3.2320 H       
  51 H51           -1.4228    -2.3554    -5.4426 H       
  52 H52           -2.2929    -3.7318    -3.5964 H       
  53 H53           -0.9336    -4.0841    -1.5752 H       
  54 H54            3.5939    -4.2927     3.1683 H       
  55 H55            4.3323    -2.8350     2.4626 H       
  56 H56            2.9980    -2.6804     3.6305 H       
@<TRIPOS>BOND
   1    1    2 1
   2    1   13 1
   3    1   16 2
   4    2    3 am
   5    2   12 2
   6    3    4 1
   7    3    6 1
   8    4    5 1
   9    4   24 1
  10    4   33 1
  11    5   18 1
  12    5   34 1
  13    5   35 1
  14    6    7 1
  15    6   11 1
  16    6   36 1
  17    7    8 1
  18    7   37 1
  19    7   38 1
  20    8    9 1
  21    8   39 1
  22    8   40 1
  23    9   10 1
  24   10   11 1
  25   10   41 1
  26   10   42 1
  27   11   43 1
  28   11   44 1
  29   13   14 2
  30   14   15 1
  31   14   45 1
  32   15   16 1
  33   15   17 1
  34   16   46 1
  35   17   47 1
  36   17   48 1
  37   17   49 1
  38   18   19 ar
  39   18   23 ar
  40   19   20 ar
  41   19   50 1
  42   20   21 ar
  43   20   28 1
  44   21   22 ar
  45   21   51 1
  46   22   23 ar
  47   22   52 1
  48   23   53 1
  49   24   25 2
  50   24   26 1
  51   26   27 1
  52   27   54 1
  53   27   55 1
  54   27   56 1
  55   28   29 1
  56   29   30 1
  57   29   31 1
  58   29   32 1

#	End of record

