#	Name: ASD01148368
#	Creating user name:	WinNT
#	Creation time:	15. 06. 2019 19:02

#	Modifying user name:	WinNT
#	Modification time:	15. 06. 2019 19:02

#	Program:	/corina/corina34_cracker 3.40 0067  02.08.2006

@<TRIPOS>MOLECULE
ASD01148368
  56   58    0    0    0
SMALL
NO_CHARGES


@<TRIPOS>ATOM
   1 C1            -0.4097     1.8304    -0.0445 C.ar    
   2 C2            -0.4707     0.4510     0.0154 C.ar    
   3 C3             0.6941    -0.2897     0.0945 C.ar    
   4 C4             1.9195     0.3493     0.1132 C.ar    
   5 C5             1.9805     1.7292     0.0523 C.ar    
   6 C6             0.8161     2.4697    -0.0253 C.ar    
   7 C7             3.3166     2.4260     0.0737 C.3     
   8 O8             4.3316     1.6154    -0.5525 O.3     
   9 C9             3.3041     3.6757    -0.8387 C.3     
  10 C10            3.8466     3.1337    -2.1475 C.2     
  11 N11            4.3977     1.9899    -1.9143 N.2     
  12 C12            3.7590     3.7996    -3.4619 C.ar    
  13 C13            4.3035     3.1866    -4.5935 C.ar    
  14 C14            3.1267     5.0401    -3.5758 C.ar    
  15 C15            3.0451     5.6611    -4.8019 C.ar    
  16 C16            3.5940     5.0507    -5.9318 C.ar    
  17 C17            4.2218     3.8077    -5.8190 C.ar    
  18 C18            3.5055     5.7170    -7.2481 C.2     
  19 O19            4.0780     5.2420    -8.2095 O.2     
  20 N20            2.7901     6.8513    -7.3825 N.am    
  21 C21            4.8144     3.1495    -7.0383 C.3     
  22 C22            3.7157     2.7951     1.5039 C.3     
  23 F23            3.7858     1.6350     2.2826 F       
  24 F24            4.9650     3.4247     1.4916 F       
  25 F25            2.7613     3.6631     2.0451 F       
  26 C26            2.7023     7.5118    -8.6872 C.3     
  27 C27            1.8505     8.7491    -8.5676 C.2     
  28 N28            1.6287     9.5217    -9.6494 N.am    
  29 O29            1.3645     9.0497    -7.4978 O.2     
  30 C30            0.8006    10.7246    -9.5331 C.3     
  31 C31            0.7089    11.4144   -10.8957 C.3     
  32 F32            0.1331    10.5397   -11.8233 F       
  33 F33           -0.0819    12.5631   -10.7846 F       
  34 F34            1.9917    11.7711   -11.3250 F       
  35 C35            0.6276    -1.7938     0.1608 C.3     
  36 F36           -0.7097    -2.2033     0.1277 F       
  37 F37            1.3095    -2.3394    -0.9321 F       
  38 F38            1.2211    -2.2349     1.3483 F       
  39 H39           -1.3193     2.4088    -0.1108 H       
  40 H40           -1.4282    -0.0484     0.0008 H       
  41 H41            2.8293    -0.2292     0.1757 H       
  42 H42            0.8638     3.5476    -0.0724 H       
  43 H43            2.2889     4.0513    -0.9666 H       
  44 H44            3.9578     4.4519    -0.4407 H       
  45 H45            4.7888     2.2257    -4.5063 H       
  46 H46            2.7016     5.5118    -2.7022 H       
  47 H47            2.5563     6.6201    -4.8900 H       
  48 H48            2.3333     7.2303    -6.6153 H       
  49 H49            5.8113     3.5512    -7.2197 H       
  50 H50            4.8805     2.0738    -6.8746 H       
  51 H51            4.1802     3.3472    -7.9024 H       
  52 H52            3.7018     7.7897    -9.0217 H       
  53 H53            2.2537     6.8303    -9.4100 H       
  54 H54            2.0173     9.2813   -10.5050 H       
  55 H55           -0.1989    10.4467    -9.1986 H       
  56 H56            1.2492    11.4061    -8.8103 H       
@<TRIPOS>BOND
   1    1    2 ar
   2    1    6 ar
   3    1   39 1
   4    2    3 ar
   5    2   40 1
   6    3    4 ar
   7    3   35 1
   8    4    5 ar
   9    4   41 1
  10    5    6 ar
  11    5    7 1
  12    6   42 1
  13    7    8 1
  14    7    9 1
  15    7   22 1
  16    8   11 1
  17    9   10 1
  18    9   43 1
  19    9   44 1
  20   10   11 2
  21   10   12 1
  22   12   13 ar
  23   12   14 ar
  24   13   17 ar
  25   13   45 1
  26   14   15 ar
  27   14   46 1
  28   15   16 ar
  29   15   47 1
  30   16   17 ar
  31   16   18 1
  32   17   21 1
  33   18   19 2
  34   18   20 am
  35   20   26 1
  36   20   48 1
  37   21   49 1
  38   21   50 1
  39   21   51 1
  40   22   23 1
  41   22   24 1
  42   22   25 1
  43   26   27 1
  44   26   52 1
  45   26   53 1
  46   27   29 2
  47   27   28 am
  48   28   30 1
  49   28   54 1
  50   30   31 1
  51   30   55 1
  52   30   56 1
  53   31   32 1
  54   31   33 1
  55   31   34 1
  56   35   36 1
  57   35   37 1
  58   35   38 1

#	End of record

