#	Name: ASD00450078
#	Creating user name:	WinNT
#	Creation time:	15. 06. 2019 18:36

#	Modifying user name:	WinNT
#	Modification time:	15. 06. 2019 18:36

#	Program:	/corina/corina34_cracker 3.40 0067  02.08.2006

@<TRIPOS>MOLECULE
ASD00450078
  46   48    0    0    0
SMALL
NO_CHARGES


@<TRIPOS>ATOM
   1 C1            -0.9658     1.3516    -0.8463 C.ar    
   2 C2            -0.6607     0.0273    -0.4955 C.ar    
   3 C3             0.5475    -0.2624     0.1145 C.ar    
   4 C4             1.4564     0.7496     0.3805 C.ar    
   5 C5             1.1669     2.0610     0.0392 C.ar    
   6 C6            -0.0390     2.3722    -0.5737 C.ar    
   7 C7            -2.2441     1.6681    -1.5001 C.2     
   8 O8            -3.2189     1.9461    -0.8275 O.2     
   9 N9            -2.3359     1.6503    -2.8446 N.am    
  10 N10           -0.3288     3.6886    -0.9166 N.pl3   
  11 C11            0.6993     4.6341    -0.9926 C.ar    
  12 C12            1.6340     4.5663    -2.0205 C.ar    
  13 C13            0.7857     5.6458    -0.0455 C.ar    
  14 C14            1.8020     6.5782    -0.1230 C.ar    
  15 C15            2.7337     6.5059    -1.1430 C.ar    
  16 C16            2.6488     5.5030    -2.0920 C.ar    
  17 F17            2.6323     0.4555     0.9772 F       
  18 F18            1.5509     3.5867    -2.9471 F       
  19 I19            4.2718     7.9238    -1.2558 I       
  20 F20            2.0605     3.0391     0.3039 F       
  21 O21           -1.5479    -0.9663    -0.7534 O.3     
  22 C22           -1.1689    -2.2451    -0.4889 C.ar    
  23 C23           -1.3529    -2.7752     0.7803 C.ar    
  24 C24           -0.9651    -4.0819     1.0471 C.ar    
  25 C25           -0.3941    -4.8540     0.0418 C.ar    
  26 C26           -0.2128    -4.3210    -1.2217 C.ar    
  27 C27           -0.6033    -3.0222    -1.4895 C.ar    
  28 N28           -1.1485    -4.6205     2.3264 N.am    
  29 S29           -1.4565    -3.6201     3.6096 S.o2    
  30 O30           -1.5844    -4.4582     4.7501 O.2     
  31 O31           -0.5148    -2.5592     3.5264 O.2     
  32 N32           -2.9467    -2.9435     3.3570 N.am    
  33 F33           -1.9077    -2.0215     1.7546 F       
  34 F34           -0.0157    -6.1252     0.2991 F       
  35 H35            0.7828    -1.2813     0.3846 H       
  36 H36           -1.5586     1.4286    -3.3809 H       
  37 H37           -3.1793     1.8591    -3.2759 H       
  38 H38           -1.2438     3.9510    -1.1029 H       
  39 H39            0.0586     5.7039     0.7509 H       
  40 H40            1.8691     7.3650     0.6137 H       
  41 H41            3.3755     5.4514    -2.8892 H       
  42 H42            0.2313    -4.9219    -2.0015 H       
  43 H43           -0.4607    -2.6092    -2.4772 H       
  44 H44           -1.0952    -5.5797     2.4610 H       
  45 H45           -3.4539    -3.1703     2.5619 H       
  46 H46           -3.3125    -2.3204     4.0043 H       
@<TRIPOS>BOND
   1    1    2 ar
   2    1    6 ar
   3    1    7 1
   4    2    3 ar
   5    2   21 1
   6    3    4 ar
   7    3   35 1
   8    4    5 ar
   9    4   17 1
  10    5    6 ar
  11    5   20 1
  12    6   10 1
  13    7    8 2
  14    7    9 am
  15    9   36 1
  16    9   37 1
  17   10   11 1
  18   10   38 1
  19   11   13 ar
  20   11   12 ar
  21   12   16 ar
  22   12   18 1
  23   13   14 ar
  24   13   39 1
  25   14   15 ar
  26   14   40 1
  27   15   16 ar
  28   15   19 1
  29   16   41 1
  30   21   22 1
  31   22   23 ar
  32   22   27 ar
  33   23   24 ar
  34   23   33 1
  35   24   25 ar
  36   24   28 1
  37   25   26 ar
  38   25   34 1
  39   26   27 ar
  40   26   42 1
  41   27   43 1
  42   28   29 am
  43   28   44 1
  44   29   30 2
  45   29   31 2
  46   29   32 am
  47   32   45 1
  48   32   46 1

#	End of record

