#	Name: ASD06620012
#	Creating user name:	WinNT
#	Creation time:	15. 06. 2019 21:07

#	Modifying user name:	WinNT
#	Modification time:	15. 06. 2019 21:07

#	Program:	/corina/corina34_cracker 3.40 0067  02.08.2006

@<TRIPOS>MOLECULE
ASD06620012
  22   24    0    0    0
SMALL
NO_CHARGES


@<TRIPOS>ATOM
   1 C1            -0.0167     1.3797     0.0096 C.ar    
   2 C2             0.0021    -0.0041     0.0020 C.ar    
   3 C3             1.2349    -0.6673    -0.0134 C.ar    
   4 C4             2.3975     0.0930    -0.0204 C.ar    
   5 C5             2.2923     1.4695    -0.0120 C.ar    
   6 N6             1.1127     2.0628     0.0025 N.ar    
   7 C7            -0.3747    -2.1918    -0.0061 C.2     
   8 N8            -0.9810    -0.9888     0.0062 N.am    
   9 N9             0.9622    -2.0260    -0.0180 N.am    
  10 O10           -0.9476    -3.2652    -0.0058 O.2     
  11 C11            1.9586    -3.0999    -0.0341 C.3     
  12 C12            1.9537    -4.0857     1.1359 C.3     
  13 C13            1.4535    -4.5293    -0.2403 C.3     
  14 H14           -0.9610     1.9037     0.0169 H       
  15 H15            3.3663    -0.3842    -0.0319 H       
  16 H16            3.1894     2.0709    -0.0170 H       
  17 H17           -1.9388    -0.8354     0.0164 H       
  18 H18            2.9237    -2.8392    -0.4685 H       
  19 H19            2.9155    -4.4740     1.4710 H       
  20 H20            1.2091    -3.9353     1.9176 H       
  21 H21            0.3798    -4.6707    -0.3640 H       
  22 H22            2.0862    -5.2093    -0.8106 H       
@<TRIPOS>BOND
   1    1    2 ar
   2    1    6 ar
   3    1   14 1
   4    2    3 ar
   5    2    8 1
   6    3    4 ar
   7    3    9 1
   8    4    5 ar
   9    4   15 1
  10    5    6 ar
  11    5   16 1
  12    7    8 am
  13    7    9 am
  14    7   10 2
  15    8   17 1
  16    9   11 1
  17   11   12 1
  18   11   13 1
  19   11   18 1
  20   12   13 1
  21   12   19 1
  22   12   20 1
  23   13   21 1
  24   13   22 1

#	End of record

