#	Name: ASD08830167
#	Creating user name:	WinNT
#	Creation time:	15. 06. 2019 21:19

#	Modifying user name:	WinNT
#	Modification time:	15. 06. 2019 21:19

#	Program:	/corina/corina34_cracker 3.40 0067  02.08.2006

@<TRIPOS>MOLECULE
ASD08830167
  41   44    0    0    0
SMALL
NO_CHARGES


@<TRIPOS>ATOM
   1 C1            -0.0183     1.5001     0.0103 C.3     
   2 C2             0.0021    -0.0041     0.0020 C.2     
   3 C3            -2.4025    -0.2152     0.7258 C.ar    
   4 S4            -2.4812     1.4908     1.1650 S.3     
   5 C5            -1.2218    -0.7863     0.2011 C.ar    
   6 C6            -0.7347     1.9678     1.2841 C.3     
   7 C7            -1.1952    -2.1371    -0.1439 C.ar    
   8 C8            -2.3333    -2.9304     0.0322 C.ar    
   9 C9            -3.5158    -2.3523     0.5649 C.ar    
  10 C10           -3.5302    -0.9925     0.9050 C.ar    
  11 C11           -2.3280    -4.2956    -0.3096 C.ar    
  12 C12           -3.4511    -5.0413    -0.1249 C.ar    
  13 C13           -4.6112    -4.4737     0.3993 C.ar    
  14 C14           -4.6550    -3.1569     0.7414 C.ar    
  15 O15            1.0539    -0.5823    -0.1736 O.2     
  16 C16            1.4151     2.0348    -0.0005 C.3     
  17 N17            2.0665     1.6643    -1.2640 N.3     
  18 C18            3.3549     2.3560    -1.4152 C.3     
  19 C19            1.1887     1.9416    -2.4103 C.3     
  20 C20            1.8808     1.4867    -3.6979 C.3     
  21 O21            3.1450     2.1456    -3.8121 O.3     
  22 C22            4.0253     1.8969    -2.7128 C.3     
  23 H23           -0.5527     1.8647    -0.8670 H       
  24 H24           -0.2829     1.4929     2.1549 H       
  25 H25           -0.6552     3.0512     1.3735 H       
  26 H26           -0.2932    -2.5718    -0.5487 H       
  27 H27           -4.4283    -0.5499     1.3099 H       
  28 H28           -1.4366    -4.7493    -0.7170 H       
  29 H29           -3.4436    -6.0886    -0.3886 H       
  30 H30           -5.4889    -5.0881     0.5361 H       
  31 H31           -5.5614    -2.7320     1.1468 H       
  32 H32            1.3986     3.1205     0.0950 H       
  33 H33            1.9696     1.6051     0.8337 H       
  34 H34            3.1879     3.4325    -1.4529 H       
  35 H35            3.9982     2.1163    -0.5686 H       
  36 H36            0.2508     1.3994    -2.2901 H       
  37 H37            0.9871     3.0115    -2.4640 H       
  38 H38            2.0342     0.4079    -3.6671 H       
  39 H39            1.2585     1.7421    -4.5555 H       
  40 H40            4.9538     2.4490    -2.8579 H       
  41 H41            4.2409     0.8301    -2.6533 H       
@<TRIPOS>BOND
   1    1    2 1
   2    1   16 1
   3    1    6 1
   4    1   23 1
   5    2    5 1
   6    2   15 2
   7    3    4 1
   8    3    5 ar
   9    3   10 ar
  10    4    6 1
  11    5    7 ar
  12    6   24 1
  13    6   25 1
  14    7    8 ar
  15    7   26 1
  16    8    9 ar
  17    8   11 ar
  18    9   10 ar
  19    9   14 ar
  20   10   27 1
  21   11   12 ar
  22   11   28 1
  23   12   13 ar
  24   12   29 1
  25   13   14 ar
  26   13   30 1
  27   14   31 1
  28   16   17 1
  29   16   32 1
  30   16   33 1
  31   17   18 1
  32   17   19 1
  33   18   22 1
  34   18   34 1
  35   18   35 1
  36   19   20 1
  37   19   36 1
  38   19   37 1
  39   20   21 1
  40   20   38 1
  41   20   39 1
  42   21   22 1
  43   22   40 1
  44   22   41 1

#	End of record

