#	Name: ASD01900353
#	Creating user name:	WinNT
#	Creation time:	15. 06. 2019 19:51

#	Modifying user name:	WinNT
#	Modification time:	15. 06. 2019 19:51

#	Program:	/corina/corina34_cracker 3.40 0067  02.08.2006

@<TRIPOS>MOLECULE
ASD01900353
  39   41    0    0    0
SMALL
NO_CHARGES


@<TRIPOS>ATOM
   1 C1            -0.0180     1.4730     0.0101 C.2     
   2 C2             0.0021    -0.0041     0.0020 C.ar    
   3 C3             1.2188    -0.6888    -0.0133 C.ar    
   4 C4             1.2303    -2.0682    -0.0203 C.ar    
   5 C5             0.0396    -2.7731    -0.0127 C.ar    
   6 C6            -1.1697    -2.1009     0.0020 C.ar    
   7 C7            -1.1956    -0.7217     0.0154 C.ar    
   8 O8             1.0256     2.0946     0.0035 O.2     
   9 O9            -1.1936     2.1307     0.0193 O.3     
  10 S10            0.0635    -4.5350    -0.0224 S.o2    
  11 O11           -1.1858    -4.9503    -0.5571 O.2     
  12 O12            1.3133    -4.9162    -0.5808 O.2     
  13 N13            0.0853    -5.0336     1.5566 N.am    
  14 C14           -1.0159    -5.2885     2.3266 C.2     
  15 C15           -0.5913    -5.6723     3.5531 C.2     
  16 C16            0.8210    -5.6519     3.5342 C.2     
  17 C17            1.2038    -5.2632     2.3013 C.2     
  18 C18           -1.7010    -6.7620     6.9630 C.ar    
  19 C19           -1.1143    -7.1379     8.1695 C.ar    
  20 C20           -1.9295    -7.4777     9.2373 C.ar    
  21 C21           -3.3039    -7.4297     9.0616 C.ar    
  22 C22           -3.8186    -7.0467     7.8336 C.ar    
  23 N23           -3.0218    -6.7293     6.8364 N.ar    
  24 C24           -0.8436    -6.3900     5.8137 C.2     
  25 O25            0.3665    -6.4135     5.9256 O.2     
  26 N26           -1.4053    -6.0255     4.6440 N.am    
  27 H27            2.1488    -0.1398    -0.0199 H       
  28 H28            2.1707    -2.5992    -0.0321 H       
  29 H29           -2.0953    -2.6572     0.0071 H       
  30 H30           -2.1401    -0.1983     0.0318 H       
  31 H31           -1.1561     3.0969     0.0244 H       
  32 H32           -2.0449    -5.1988     2.0111 H       
  33 H33            1.4746    -5.9053     4.3558 H       
  34 H34            2.2229    -5.1504     1.9621 H       
  35 H35           -0.0394    -7.1645     8.2709 H       
  36 H36           -1.5039    -7.7734    10.1848 H       
  37 H37           -3.9668    -7.6887     9.8738 H       
  38 H38           -4.8888    -7.0082     7.6933 H       
  39 H39           -2.3710    -6.0068     4.5548 H       
@<TRIPOS>BOND
   1    1    2 1
   2    1    8 2
   3    1    9 1
   4    2    3 ar
   5    2    7 ar
   6    3    4 ar
   7    3   27 1
   8    4    5 ar
   9    4   28 1
  10    5    6 ar
  11    5   10 1
  12    6    7 ar
  13    6   29 1
  14    7   30 1
  15    9   31 1
  16   10   11 2
  17   10   12 2
  18   10   13 am
  19   13   14 1
  20   13   17 1
  21   14   15 2
  22   14   32 1
  23   15   16 1
  24   15   26 1
  25   16   17 2
  26   16   33 1
  27   17   34 1
  28   18   19 ar
  29   18   23 ar
  30   18   24 1
  31   19   20 ar
  32   19   35 1
  33   20   21 ar
  34   20   36 1
  35   21   22 ar
  36   21   37 1
  37   22   23 ar
  38   22   38 1
  39   24   25 2
  40   24   26 am
  41   26   39 1

#	End of record

