#	Name: ASD05730001
#	Creating user name:	WinNT
#	Creation time:	15. 06. 2019 21:02

#	Modifying user name:	WinNT
#	Modification time:	15. 06. 2019 21:02

#	Program:	/corina/corina34_cracker 3.40 0067  02.08.2006

@<TRIPOS>MOLECULE
ASD05730001
  59   62    0    0    0
SMALL
NO_CHARGES


@<TRIPOS>ATOM
   1 N1            -2.4122    -2.6712    -0.2090 N.ar    
   2 C2            -1.2445    -2.0391    -0.2299 C.ar    
   3 N3            -0.0872    -2.6811    -0.1715 N.ar    
   4 C4            -0.0582    -4.0050    -0.0880 C.ar    
   5 C5            -1.2804    -4.7094    -0.0629 C.ar    
   6 C6            -2.4754    -3.9888    -0.1273 C.ar    
   7 N7             1.1239    -4.6983    -0.0265 N.am    
   8 C8             1.1392    -6.0399     0.0575 C.2     
   9 C9            -0.0412    -6.7956     0.0865 C.2     
  10 C10           -1.2580    -6.1714     0.0296 C.2     
  11 N11           -1.2362    -0.6591    -0.3163 N.pl3   
  12 C12           -2.4307     0.0346    -0.4911 C.ar    
  13 C13           -2.4304     1.4249    -0.4633 C.ar    
  14 C14           -3.6244     2.1017    -0.6389 C.ar    
  15 C15           -4.7823     1.3619    -0.8370 C.ar    
  16 C16           -4.7093    -0.0170    -0.8529 C.ar    
  17 N17           -3.5557    -0.6354    -0.6877 N.ar    
  18 C18           -6.1054     2.0565    -1.0321 C.3     
  19 O19           -2.4076    -6.8843     0.0568 O.3     
  20 O20            2.2123    -6.6171     0.1097 O.2     
  21 C21            2.3914    -3.9641    -0.0532 C.3     
  22 C22            3.3189    -4.1991    -1.2471 C.3     
  23 C23            2.5567    -2.8787    -1.1188 C.3     
  24 N24           -6.3190     2.3099    -2.4632 N.3     
  25 C25           -7.6021     2.9875    -2.6921 C.3     
  26 C26           -7.7886     3.2338    -4.1905 C.3     
  27 C27           -9.1251     3.9396    -4.4289 C.3     
  28 C28           -9.3116     4.1860    -5.9274 C.3     
  29 O29           -8.2466     5.0066    -6.4114 O.3     
  30 C30           -9.3020     2.8479    -6.6693 C.3     
  31 C31          -10.6480     4.8917    -6.1657 C.3     
  32 H32           -3.4285    -4.4965    -0.1100 H       
  33 H33            0.0096    -7.8723     0.1544 H       
  34 H34           -0.3983    -0.1743    -0.2551 H       
  35 H35           -1.5108     1.9690    -0.3065 H       
  36 H36           -3.6550     3.1811    -0.6218 H       
  37 H37           -5.6075    -0.5966    -1.0067 H       
  38 H38           -6.9073     1.4240    -0.6514 H       
  39 H39           -6.1018     3.0033    -0.4920 H       
  40 H40           -2.2761    -7.8404     0.1181 H       
  41 H41            2.8551    -3.7912     0.9180 H       
  42 H42            4.3928    -4.1804    -1.0614 H       
  43 H43            2.9860    -4.9000    -2.0127 H       
  44 H44            1.7224    -2.7108    -1.7999 H       
  45 H45            3.1292    -1.9913    -0.8487 H       
  46 H46           -5.5551     2.8404    -2.8545 H       
  47 H47           -8.4145     2.3615    -2.3229 H       
  48 H48           -7.6090     3.9407    -2.1635 H       
  49 H49           -6.9763     3.8598    -4.5597 H       
  50 H50           -7.7818     2.2806    -4.7191 H       
  51 H51           -9.9374     3.3136    -4.0597 H       
  52 H52           -9.1319     4.8928    -3.9003 H       
  53 H53           -8.1921     5.8726    -5.9844 H       
  54 H54          -10.1144     2.2219    -6.3001 H       
  55 H55           -9.4349     3.0234    -7.7368 H       
  56 H56           -8.3499     2.3451    -6.4995 H       
  57 H57          -10.6549     5.8449    -5.6372 H       
  58 H58          -10.7809     5.0672    -7.2333 H       
  59 H59          -11.4604     4.2657    -5.7965 H       
@<TRIPOS>BOND
   1    1    2 ar
   2    1    6 ar
   3    2    3 ar
   4    2   11 1
   5    3    4 ar
   6    4    5 ar
   7    4    7 1
   8    5    6 ar
   9    5   10 1
  10    6   32 1
  11    7    8 am
  12    7   21 1
  13    8    9 1
  14    8   20 2
  15    9   10 2
  16    9   33 1
  17   10   19 1
  18   11   12 1
  19   11   34 1
  20   12   13 ar
  21   12   17 ar
  22   13   14 ar
  23   13   35 1
  24   14   15 ar
  25   14   36 1
  26   15   16 ar
  27   15   18 1
  28   16   17 ar
  29   16   37 1
  30   18   24 1
  31   18   38 1
  32   18   39 1
  33   19   40 1
  34   21   22 1
  35   21   23 1
  36   21   41 1
  37   22   23 1
  38   22   42 1
  39   22   43 1
  40   23   44 1
  41   23   45 1
  42   24   25 1
  43   24   46 1
  44   25   26 1
  45   25   47 1
  46   25   48 1
  47   26   27 1
  48   26   49 1
  49   26   50 1
  50   27   28 1
  51   27   51 1
  52   27   52 1
  53   28   29 1
  54   28   30 1
  55   28   31 1
  56   29   53 1
  57   30   54 1
  58   30   55 1
  59   30   56 1
  60   31   57 1
  61   31   58 1
  62   31   59 1

#	End of record

