#	Name: ASD01885430
#	Creating user name:	WinNT
#	Creation time:	15. 06. 2019 19:49

#	Modifying user name:	WinNT
#	Modification time:	15. 06. 2019 19:49

#	Program:	/corina/corina34_cracker 3.40 0067  02.08.2006

@<TRIPOS>MOLECULE
ASD01885430
  47   50    0    0    0
SMALL
NO_CHARGES


@<TRIPOS>ATOM
   1 C1            -0.0387     1.4162     0.0072 C.ar    
   2 C2            -0.0161     0.0211     0.0396 C.ar    
   3 N3            -1.1308    -0.7516     0.0522 N.2     
   4 C4            -2.1916    -0.5691    -0.6469 C.2     
   5 C5            -2.3340     0.6051    -1.5794 C.3     
   6 C6            -2.2858     1.8673    -0.7561 C.2     
   7 N7            -1.2070     2.1667    -0.0335 N.am    
   8 C8             1.1628     2.1208     0.0092 C.ar    
   9 C9             2.3793     1.4480     0.0376 C.ar    
  10 C10            2.4001     0.0516     0.0643 C.ar    
  11 C11            1.2210    -0.6497     0.0655 C.ar    
  12 C12           -3.2987    -1.5335    -0.5346 C.ar    
  13 O13           -3.2381     2.6185    -0.7531 O.2     
  14 C14           -3.1332    -2.7082     0.2068 C.ar    
  15 C15           -4.1707    -3.6126     0.3130 C.ar    
  16 C16           -5.3777    -3.3655    -0.3104 C.ar    
  17 C17           -5.5581    -2.1961    -1.0546 C.ar    
  18 C18           -4.5182    -1.2754    -1.1627 C.ar    
  19 C19           -6.8109    -1.9425    -1.7001 C.1     
  20 N20           -7.8048    -1.7413    -2.2122 N.1     
  21 C21            3.6497     2.2099     0.0389 C.ar    
  22 C22            4.8696     1.5320     0.0674 C.ar    
  23 C23            6.0503     2.2389     0.0692 C.ar    
  24 C24            6.0277     3.6363     0.0419 C.ar    
  25 C25            4.8055     4.3142     0.0129 C.ar    
  26 C26            3.6261     3.6053     0.0059 C.ar    
  27 C27            7.2932     4.3954     0.0442 C.2     
  28 O28            8.3552     3.8058     0.0698 O.2     
  29 O29            7.2709     5.7423     0.0179 O.3     
  30 C30            8.5534     6.4230     0.0220 C.3     
  31 H31           -1.5158     0.6042    -2.2997 H       
  32 H32           -3.2872     0.5445    -2.1045 H       
  33 H33           -1.2403     2.9703     0.5087 H       
  34 H34            1.1493     3.2005    -0.0118 H       
  35 H35            3.3427    -0.4751     0.0844 H       
  36 H36            1.2423    -1.7292     0.0860 H       
  37 H37           -2.1918    -2.9081     0.6968 H       
  38 H38           -4.0375    -4.5181     0.8863 H       
  39 H39           -6.1847    -4.0779    -0.2231 H       
  40 H40           -4.6523    -0.3701    -1.7362 H       
  41 H41            4.8868     0.4523     0.0885 H       
  42 H42            6.9940     1.7142     0.0919 H       
  43 H43            4.7870     5.3939    -0.0082 H       
  44 H44            2.6817     4.1288    -0.0165 H       
  45 H45            8.3928     7.5009    -0.0010 H       
  46 H46            9.1032     6.1568     0.9247 H       
  47 H47            9.1271     6.1225    -0.8548 H       
@<TRIPOS>BOND
   1    1    2 ar
   2    1    8 ar
   3    1    7 1
   4    2    3 1
   5    2   11 ar
   6    3    4 2
   7    4    5 1
   8    4   12 1
   9    5    6 1
  10    5   31 1
  11    5   32 1
  12    6    7 am
  13    6   13 2
  14    7   33 1
  15    8    9 ar
  16    8   34 1
  17    9   10 ar
  18    9   21 1
  19   10   11 ar
  20   10   35 1
  21   11   36 1
  22   12   14 ar
  23   12   18 ar
  24   14   15 ar
  25   14   37 1
  26   15   16 ar
  27   15   38 1
  28   16   17 ar
  29   16   39 1
  30   17   18 ar
  31   17   19 1
  32   18   40 1
  33   19   20 3
  34   21   22 ar
  35   21   26 ar
  36   22   23 ar
  37   22   41 1
  38   23   24 ar
  39   23   42 1
  40   24   25 ar
  41   24   27 1
  42   25   26 ar
  43   25   43 1
  44   26   44 1
  45   27   28 2
  46   27   29 1
  47   29   30 1
  48   30   45 1
  49   30   46 1
  50   30   47 1

#	End of record

