#	Name: ASD01814341
#	Creating user name:	WinNT
#	Creation time:	15. 06. 2019 19:32

#	Modifying user name:	WinNT
#	Modification time:	15. 06. 2019 19:32

#	Program:	/corina/corina34_cracker 3.40 0067  02.08.2006

@<TRIPOS>MOLECULE
ASD01814341
  52   56    0    0    0
SMALL
NO_CHARGES


@<TRIPOS>ATOM
   1 C1            -0.0168     1.3869     0.0097 C.ar    
   2 C2             0.0021    -0.0041     0.0020 C.ar    
   3 C3             1.1801    -0.6897    -0.0129 C.ar    
   4 C4             2.3948     0.0129    -0.0207 C.ar    
   5 C5             2.3717     1.4290    -0.0129 C.ar    
   6 C6             1.1455     2.1015     0.0024 C.ar    
   7 C7             3.6293    -0.6694    -0.0365 C.ar    
   8 C8             4.8031     0.0063    -0.0446 C.ar    
   9 C9             4.8359     1.4095    -0.0374 C.ar    
  10 C10            3.6406     2.1511    -0.0211 C.ar    
  11 C11            6.1026     2.1526    -0.0470 C.2     
  12 N12            6.0328     3.5041    -0.0399 N.am    
  13 C13            4.8302     4.1313    -0.0241 C.2     
  14 N14            3.6961     3.4935    -0.0158 N.2     
  15 C15            3.6424    -2.1763    -0.0442 C.3     
  16 O16            7.1745     1.5748    -0.0604 O.2     
  17 C17            7.2655     4.2957    -0.0490 C.3     
  18 C18            7.3178     5.1723     1.2039 C.3     
  19 C19            8.6052     5.9990     1.1945 C.3     
  20 C20            8.6317     6.8873    -0.0509 C.3     
  21 C21            8.5794     6.0107    -1.3038 C.3     
  22 C22            7.2920     5.1840    -1.2944 C.3     
  23 O23            7.2930     4.3426     2.3671 O.3     
  24 C24            3.5087    -2.6726    -1.4608 C.ar    
  25 C25            4.6327    -2.8921    -2.2342 C.ar    
  26 N26            4.5244    -3.3268    -3.4746 N.ar    
  27 C27            3.3509    -3.5683    -4.0250 C.ar    
  28 C28            2.1816    -3.3718    -3.3122 C.ar    
  29 C29            2.2566    -2.9202    -2.0025 C.ar    
  30 Cl30           0.6408    -3.6924    -4.0449 Cl      
  31 H31           -0.9630     1.9076     0.0169 H       
  32 H32           -0.9305    -0.5488     0.0083 H       
  33 H33            1.1786    -1.7697    -0.0183 H       
  34 H34            1.1188     3.1811     0.0081 H       
  35 H35            5.7317    -0.5451    -0.0563 H       
  36 H36            4.8132     5.2111    -0.0182 H       
  37 H37            4.5813    -2.5336     0.3789 H       
  38 H38            2.8098    -2.5499     0.5518 H       
  39 H39            8.1264     3.6273    -0.0610 H       
  40 H40            6.4569     5.8406     1.2159 H       
  41 H41            8.6425     6.6235     2.0871 H       
  42 H42            9.4662     5.3306     1.1825 H       
  43 H43            7.7708     7.5557    -0.0389 H       
  44 H44            9.5489     7.4763    -0.0577 H       
  45 H45            8.5983     6.6436    -2.1911 H       
  46 H46            9.4403     5.3423    -1.3159 H       
  47 H47            7.2547     4.5595    -2.1870 H       
  48 H48            6.4311     5.8523    -1.2824 H       
  49 H49            7.3237     4.8324     3.2003 H       
  50 H50            5.6115    -2.7051    -1.8179 H       
  51 H51            3.3020    -3.9232    -5.0438 H       
  52 H52            1.3608    -2.7576    -1.4215 H       
@<TRIPOS>BOND
   1    1    2 ar
   2    1    6 ar
   3    1   31 1
   4    2    3 ar
   5    2   32 1
   6    3    4 ar
   7    3   33 1
   8    4    5 ar
   9    4    7 ar
  10    5    6 ar
  11    5   10 ar
  12    6   34 1
  13    7    8 ar
  14    7   15 1
  15    8    9 ar
  16    8   35 1
  17    9   10 ar
  18    9   11 1
  19   10   14 1
  20   11   12 am
  21   11   16 2
  22   12   13 1
  23   12   17 1
  24   13   14 2
  25   13   36 1
  26   15   24 1
  27   15   37 1
  28   15   38 1
  29   17   18 1
  30   17   22 1
  31   17   39 1
  32   18   19 1
  33   18   23 1
  34   18   40 1
  35   19   20 1
  36   19   41 1
  37   19   42 1
  38   20   21 1
  39   20   43 1
  40   20   44 1
  41   21   22 1
  42   21   45 1
  43   21   46 1
  44   22   47 1
  45   22   48 1
  46   23   49 1
  47   24   25 ar
  48   24   29 ar
  49   25   26 ar
  50   25   50 1
  51   26   27 ar
  52   27   28 ar
  53   27   51 1
  54   28   29 ar
  55   28   30 1
  56   29   52 1

#	End of record

