#	Name: ASD01915346
#	Creating user name:	WinNT
#	Creation time:	15. 06. 2019 20:05

#	Modifying user name:	WinNT
#	Modification time:	15. 06. 2019 20:05

#	Program:	/corina/corina34_cracker 3.40 0067  02.08.2006

@<TRIPOS>MOLECULE
ASD01915346
  46   49    0    0    0
SMALL
NO_CHARGES


@<TRIPOS>ATOM
   1 C1             0.2740     0.1972    -0.3201 C.ar    
   2 C2             0.4444    -1.1804    -0.2656 C.ar    
   3 C3             1.7278    -1.7045    -0.2046 C.ar    
   4 N4             2.7797    -0.9146    -0.1979 N.ar    
   5 C5             2.6589     0.4070    -0.2487 C.ar    
   6 C6             1.3997     1.0026    -0.3115 C.ar    
   7 F7            -0.6284    -2.0015    -0.2715 F       
   8 C8             3.8709     1.2547    -0.2382 C.2     
   9 N9             5.1233     0.8394    -0.1817 N.2     
  10 C10            5.8726     1.9527    -0.1965 C.2     
  11 N11            5.0650     2.9700    -0.2598 N.2     
  12 O12            3.9120     2.5949    -0.2902 O.3     
  13 C13            7.3776     2.0130    -0.1481 C.3     
  14 C14            7.9017     2.7089    -1.4064 C.3     
  15 C15            9.4314     2.7414    -1.3738 C.3     
  16 C16            9.8952     3.5396    -0.1512 C.3     
  17 N17            9.2781     2.9637     1.0514 N.am    
  18 C18            7.8181     2.8029     1.0883 C.3     
  19 C19           10.0369     2.5900     2.1007 C.2     
  20 O20           11.2492     2.6280     2.0183 O.2     
  21 C21            9.3954     2.1342     3.3509 C.ar    
  22 C22            9.9091     1.0344     4.0415 C.ar    
  23 C23            9.3067     0.6133     5.2075 C.ar    
  24 C24            8.1927     1.2795     5.6951 C.ar    
  25 C25            7.6783     2.3718     5.0131 C.ar    
  26 C26            8.2767     2.8051     3.8495 C.ar    
  27 F27            7.6060     0.8627     6.8384 F       
  28 C28            9.4650     5.0004    -0.2990 C.3     
  29 H29           -0.7142     0.6298    -0.3725 H       
  30 H30            1.8649    -2.7749    -0.1618 H       
  31 H31            1.3041     2.0776    -0.3531 H       
  32 H32            7.7808     1.0016    -0.0970 H       
  33 H33            7.5688     2.1624    -2.2889 H       
  34 H34            7.5175     3.7282    -1.4444 H       
  35 H35            9.8157     1.7234    -1.3109 H       
  36 H36            9.8046     3.2162    -2.2812 H       
  37 H37           10.9805     3.4827    -0.0680 H       
  38 H38            7.3423     3.7835     1.0841 H       
  39 H39            7.5330     2.2600     1.9895 H       
  40 H40           10.7765     0.5146     3.6624 H       
  41 H41            9.7028    -0.2373     5.7422 H       
  42 H42            6.8102     2.8869     5.3970 H       
  43 H43            7.8755     3.6561     3.3193 H       
  44 H44            8.3790     5.0534    -0.3756 H       
  45 H45            9.7959     5.5665     0.5717 H       
  46 H46            9.9137     5.4220    -1.1985 H       
@<TRIPOS>BOND
   1    1    2 ar
   2    1    6 ar
   3    1   29 1
   4    2    3 ar
   5    2    7 1
   6    3    4 ar
   7    3   30 1
   8    4    5 ar
   9    5    6 ar
  10    5    8 1
  11    6   31 1
  12    8    9 2
  13    8   12 1
  14    9   10 1
  15   10   11 2
  16   10   13 1
  17   11   12 1
  18   13   14 1
  19   13   18 1
  20   13   32 1
  21   14   15 1
  22   14   33 1
  23   14   34 1
  24   15   16 1
  25   15   35 1
  26   15   36 1
  27   16   17 1
  28   16   28 1
  29   16   37 1
  30   17   18 1
  31   17   19 am
  32   18   38 1
  33   18   39 1
  34   19   20 2
  35   19   21 1
  36   21   22 ar
  37   21   26 ar
  38   22   23 ar
  39   22   40 1
  40   23   24 ar
  41   23   41 1
  42   24   25 ar
  43   24   27 1
  44   25   26 ar
  45   25   42 1
  46   26   43 1
  47   28   44 1
  48   28   45 1
  49   28   46 1

#	End of record

