#	Name: ASD03331714
#	Creating user name:	WinNT
#	Creation time:	15. 06. 2019 20:39

#	Modifying user name:	WinNT
#	Modification time:	15. 06. 2019 20:39

#	Program:	/corina/corina34_cracker 3.40 0067  02.08.2006

@<TRIPOS>MOLECULE
ASD03331714
  53   55    0    0    0
SMALL
NO_CHARGES


@<TRIPOS>ATOM
   1 C1            -0.0164     1.3615     0.0095 C.ar    
   2 C2             0.0021    -0.0041     0.0020 C.ar    
   3 C3             1.2080    -0.6950    -0.0127 C.ar    
   4 C4             2.4059    -0.0158    -0.0201 C.ar    
   5 C5             1.1892     2.0745     0.0018 C.ar    
   6 C6             1.5022     3.4554     0.0058 C.2     
   7 C7             2.4125     1.3760    -0.0131 C.ar    
   8 N8             3.4200     2.3121    -0.0179 N.pl3   
   9 C9             2.8557     3.5730    -0.0067 C.2     
  10 C10            3.6012     4.8406    -0.0080 C.2     
  11 N11            4.9488     4.8298    -0.0211 N.am    
  12 O12            3.0015     5.8989     0.0028 O.2     
  13 C13            5.6915     6.0926    -0.0223 C.3     
  14 C14            7.1934     5.8010    -0.0382 C.3     
  15 C15            7.9573     7.1000    -0.0395 C.ar    
  16 C16            8.9901     8.8939    -1.2432 C.ar    
  17 C17            8.2904     7.7033    -1.2384 C.ar    
  18 C18            8.3186     7.6890     1.1584 C.ar    
  19 C19            9.0180     8.8799     1.1608 C.ar    
  20 C20            9.3588     9.4858    -0.0418 C.ar    
  21 C21            0.5116     4.5910     0.0208 C.3     
  22 C22            0.1899     4.9681     1.4682 C.3     
  23 Cl23          -1.4939    -0.8847     0.0116 Cl      
  24 C24           -0.8158     6.1210     1.4834 C.3     
  25 C25           -1.1375     6.4981     2.9309 C.3     
  26 C26           -2.1432     7.6511     2.9461 C.3     
  27 N27           10.0671    10.6911    -0.0430 N.pl3   
  28 N28           10.3982    11.2225     1.0389 N.1     
  29 N29           10.6719    11.6619     1.9334 N.1     
  30 H30           -0.9582     1.8902     0.0169 H       
  31 H31            1.2056    -1.7750    -0.0182 H       
  32 H32            3.3377    -0.5617    -0.0308 H       
  33 H33            4.3705     2.1188    -0.0269 H       
  34 H34            5.4270     3.9859    -0.0297 H       
  35 H35            5.4242     6.6705    -0.9070 H       
  36 H36            5.4414     6.6621     0.8728 H       
  37 H37            7.4607     5.2232     0.8465 H       
  38 H38            7.4434     5.2316    -0.9334 H       
  39 H39            9.2503     9.3643    -2.1799 H       
  40 H40            8.0035     7.2425    -2.1721 H       
  41 H41            8.0533     7.2174     2.0930 H       
  42 H42            9.2992     9.3397     2.0967 H       
  43 H43            0.9387     5.4524    -0.4928 H       
  44 H44           -0.4027     4.2823    -0.4861 H       
  45 H45           -0.2371     4.1067     1.9818 H       
  46 H46            1.1042     5.2768     1.9751 H       
  47 H47           -0.3887     6.9824     0.9699 H       
  48 H48           -1.7301     5.8124     0.9766 H       
  49 H49           -1.5645     5.6367     3.4444 H       
  50 H50           -0.2232     6.8068     3.4377 H       
  51 H51           -2.3724     7.9197     3.9773 H       
  52 H52           -1.7161     8.5125     2.4325 H       
  53 H53           -3.0575     7.3424     2.4392 H       
@<TRIPOS>BOND
   1    1    2 ar
   2    1    5 ar
   3    1   30 1
   4    2    3 ar
   5    2   23 1
   6    3    4 ar
   7    3   31 1
   8    4    7 ar
   9    4   32 1
  10    5    7 ar
  11    5    6 1
  12    6    9 2
  13    6   21 1
  14    7    8 1
  15    8    9 1
  16    8   33 1
  17    9   10 1
  18   10   11 am
  19   10   12 2
  20   11   13 1
  21   11   34 1
  22   13   14 1
  23   13   35 1
  24   13   36 1
  25   14   15 1
  26   14   37 1
  27   14   38 1
  28   15   18 ar
  29   15   17 ar
  30   16   17 ar
  31   16   20 ar
  32   16   39 1
  33   17   40 1
  34   18   19 ar
  35   18   41 1
  36   19   20 ar
  37   19   42 1
  38   20   27 1
  39   21   22 1
  40   21   43 1
  41   21   44 1
  42   22   24 1
  43   22   45 1
  44   22   46 1
  45   24   25 1
  46   24   47 1
  47   24   48 1
  48   25   26 1
  49   25   49 1
  50   25   50 1
  51   26   51 1
  52   26   52 1
  53   26   53 1
  54   27   28 1
  55   28   29 3

#	End of record

