#	Name: ASD03092085
#	Creating user name:	WinNT
#	Creation time:	15. 06. 2019 20:31

#	Modifying user name:	WinNT
#	Modification time:	15. 06. 2019 20:31

#	Program:	/corina/corina34_cracker 3.40 0067  02.08.2006

@<TRIPOS>MOLECULE
ASD03092085
  40   42    0    0    0
SMALL
NO_CHARGES


@<TRIPOS>ATOM
   1 N1             0.3189     1.0028    -0.2115 N.pl3   
   2 C2             0.0414    -0.3035     0.0629 C.2     
   3 C3            -1.3172    -0.4440     0.0537 C.2     
   4 C4            -1.8750     0.8082    -0.2334 C.2     
   5 N5            -0.8986     1.6728    -0.3862 N.2     
   6 N6            -3.2425     1.0914    -0.3345 N.pl3   
   7 C7            -3.6721     2.4101    -0.5127 C.ar    
   8 C8            -4.8584     2.6698    -1.1861 C.ar    
   9 C9            -5.2811     3.9751    -1.3610 C.ar    
  10 C10           -4.5202     5.0228    -0.8646 C.ar    
  11 C11           -2.9155     3.4617    -0.0113 C.ar    
  12 C12            1.0303    -1.3727     0.3225 C.ar    
  13 C13            1.6533     1.6008    -0.3015 C.3     
  14 C14            0.6997    -2.7194     0.1327 C.ar    
  15 C15            1.6518    -3.6844     0.3861 C.ar    
  16 N16            2.8595    -3.3525     0.8017 N.ar    
  17 C17            3.2131    -2.0948     0.9936 C.ar    
  18 C18            2.3235    -1.0652     0.7589 C.ar    
  19 Cl19           4.8194    -1.7307     1.5423 Cl      
  20 C20           -3.3376     4.7643    -0.1933 C.ar    
  21 F21           -6.4350     4.2294    -2.0159 F       
  22 O22            1.6675     2.5794    -1.3427 O.3     
  23 C23            2.0041     2.2677     1.0301 C.3     
  24 C24            3.4438     2.7831     0.9786 C.3     
  25 F25           -4.9335     6.2975    -1.0368 F       
  26 H26           -1.8637    -1.3576     0.2350 H       
  27 H27           -3.8918     0.3728    -0.2810 H       
  28 H28           -5.4502     1.8534    -1.5731 H       
  29 H29           -1.9948     3.2611     0.5165 H       
  30 H30            2.3853     0.8241    -0.5229 H       
  31 H31           -0.2867    -2.9989    -0.2068 H       
  32 H32            1.4055    -4.7261     0.2428 H       
  33 H33            2.6189    -0.0386     0.9179 H       
  34 H34           -2.7464     5.5817     0.1922 H       
  35 H35            1.0390     3.3025    -1.2114 H       
  36 H36            1.3257     3.1019     1.2085 H       
  37 H37            1.9069     1.5413     1.8370 H       
  38 H38            4.1222     1.9488     0.8002 H       
  39 H39            3.5410     3.5094     0.1717 H       
  40 H40            3.6937     3.2582     1.9273 H       
@<TRIPOS>BOND
   1    1    2 1
   2    1   13 1
   3    1    5 1
   4    2    3 2
   5    2   12 1
   6    3    4 1
   7    3   26 1
   8    4    5 2
   9    4    6 1
  10    6    7 1
  11    6   27 1
  12    7    8 ar
  13    7   11 ar
  14    8    9 ar
  15    8   28 1
  16    9   10 ar
  17    9   21 1
  18   10   20 ar
  19   10   25 1
  20   11   20 ar
  21   11   29 1
  22   12   14 ar
  23   12   18 ar
  24   13   22 1
  25   13   23 1
  26   13   30 1
  27   14   15 ar
  28   14   31 1
  29   15   16 ar
  30   15   32 1
  31   16   17 ar
  32   17   18 ar
  33   17   19 1
  34   18   33 1
  35   20   34 1
  36   22   35 1
  37   23   24 1
  38   23   36 1
  39   23   37 1
  40   24   38 1
  41   24   39 1
  42   24   40 1

#	End of record

