#	Name: ASD01882314
#	Creating user name:	WinNT
#	Creation time:	15. 06. 2019 19:44

#	Modifying user name:	WinNT
#	Modification time:	15. 06. 2019 19:44

#	Program:	/corina/corina34_cracker 3.40 0067  02.08.2006

@<TRIPOS>MOLECULE
ASD01882314
  51   56    0    0    0
SMALL
NO_CHARGES


@<TRIPOS>ATOM
   1 C1            -0.0224     1.4206     0.1769 C.3     
   2 O2             0.0028    -0.0024    -0.0188 O.3     
   3 C3             1.2768    -0.2678    -0.6355 C.3     
   4 C4             2.2051     0.8249    -0.1588 C.ar    
   5 C5             3.5816     0.9440    -0.1437 C.ar    
   6 C6             4.1698     2.0893     0.3671 C.ar    
   7 C7             3.3799     3.1107     0.8604 C.ar    
   8 C8             2.0022     2.9910     0.8442 C.ar    
   9 C9             1.4145     1.8509     0.3354 C.ar    
  10 N10           -2.8144     1.8085     0.0362 N.pl3   
  11 C11           -2.0825     1.6021    -1.2210 C.3     
  12 C12           -0.6446     2.1006    -1.0413 C.3     
  13 C13           -0.8167     1.7578     1.4371 C.3     
  14 C14           -2.2565     1.2576     1.2787 C.3     
  15 F15            4.3525    -0.0552    -0.6258 F       
  16 C16           -6.3072     2.7606    -0.5921 C.2     
  17 C17           -5.1060     2.0307    -0.6216 C.2     
  18 C18           -4.0153     2.5140     0.0499 C.2     
  19 C19           -4.1157     3.7318     0.7565 C.2     
  20 C20           -5.2769     4.4153     0.7710 C.2     
  21 N21           -6.3702     3.9423     0.1055 N.pl3   
  22 N22           -8.2815     3.5391    -0.8029 N.2     
  23 N23           -7.5026     2.5683    -1.1289 N.2     
  24 C24           -7.6445     4.4014    -0.0551 C.2     
  25 C25           -8.2133     5.6720     0.5220 C.3     
  26 C26           -7.9976     6.8215    -0.4644 C.3     
  27 C27           -8.6110     8.1784    -0.1130 C.3     
  28 C28           -7.0975     7.9755    -0.0186 C.3     
  29 Cl29          -5.0075     0.5350    -1.4974 Cl      
  30 H30            1.6507    -1.2421    -0.3206 H       
  31 H31            1.1829    -0.2338    -1.7209 H       
  32 H32            5.2456     2.1841     0.3802 H       
  33 H33            3.8391     4.0032     1.2592 H       
  34 H34            1.3863     3.7897     1.2303 H       
  35 H35           -2.0730     0.5406    -1.4685 H       
  36 H36           -2.5660     2.1620    -2.0216 H       
  37 H37           -0.6499     3.1803    -0.8920 H       
  38 H38           -0.0619     1.8587    -1.9301 H       
  39 H39           -0.3560     1.2733     2.2979 H       
  40 H40           -0.8212     2.8376     1.5861 H       
  41 H41           -2.8545     1.5907     2.1270 H       
  42 H42           -2.2618     0.1686     1.2303 H       
  43 H43           -3.2582     4.1173     1.2882 H       
  44 H44           -5.3430     5.3461     1.3148 H       
  45 H45           -9.2805     5.5433     0.7023 H       
  46 H46           -7.7111     5.9008     1.4620 H       
  47 H47           -7.9702     6.5389    -1.5168 H       
  48 H48           -8.9867     8.7887    -0.9343 H       
  49 H49           -9.1681     8.2522     0.8209 H       
  50 H50           -6.6589     7.9158     0.9775 H       
  51 H51           -6.4774     8.4524    -0.7777 H       
@<TRIPOS>BOND
   1    1    2 1
   2    1    9 1
   3    1   12 1
   4    1   13 1
   5    2    3 1
   6    3    4 1
   7    3   30 1
   8    3   31 1
   9    4    5 ar
  10    4    9 ar
  11    5    6 ar
  12    5   15 1
  13    6    7 ar
  14    6   32 1
  15    7    8 ar
  16    7   33 1
  17    8    9 ar
  18    8   34 1
  19   10   11 1
  20   10   14 1
  21   10   18 1
  22   11   12 1
  23   11   35 1
  24   11   36 1
  25   12   37 1
  26   12   38 1
  27   13   14 1
  28   13   39 1
  29   13   40 1
  30   14   41 1
  31   14   42 1
  32   16   17 1
  33   16   21 1
  34   16   23 2
  35   17   18 2
  36   17   29 1
  37   18   19 1
  38   19   20 2
  39   19   43 1
  40   20   21 1
  41   20   44 1
  42   21   24 1
  43   22   23 1
  44   22   24 2
  45   24   25 1
  46   25   26 1
  47   25   45 1
  48   25   46 1
  49   26   27 1
  50   26   28 1
  51   26   47 1
  52   27   28 1
  53   27   48 1
  54   27   49 1
  55   28   50 1
  56   28   51 1

#	End of record

