#	Name: ASD04910006
#	Creating user name:	WinNT
#	Creation time:	15. 06. 2019 20:55

#	Modifying user name:	WinNT
#	Modification time:	15. 06. 2019 20:55

#	Program:	/corina/corina34_cracker 3.40 0067  02.08.2006

@<TRIPOS>MOLECULE
ASD04910006
  62   65    0    0    0
SMALL
NO_CHARGES


@<TRIPOS>ATOM
   1 C1             0.0702     1.5168     0.0038 C.2     
   2 C2             0.0772     0.0098    -0.0040 C.3     
   3 C3             1.5221    -0.4934    -0.0180 C.3     
   4 O4             1.1136     2.1258    -0.0012 O.2     
   5 O5            -1.0954     2.1824     0.0108 O.3     
   6 C6             2.6993    -2.6266    -0.0382 C.2     
   7 C7             2.7062    -4.1051    -0.0459 C.ar    
   8 C8             3.9165    -4.8002    -0.0590 C.ar    
   9 C9             3.9160    -6.1798    -0.0657 C.ar    
  10 C10            2.7192    -6.8742    -0.0599 C.ar    
  11 C11            1.5161    -6.1912    -0.0469 C.ar    
  12 C12            1.5026    -4.8117    -0.0343 C.ar    
  13 O13            3.7491    -2.0139    -0.0433 O.2     
  14 N14            1.5290    -1.9583    -0.0256 N.am    
  15 C15            2.7263    -8.3812    -0.0682 C.3     
  16 O16            1.6896    -8.8576    -0.9285 O.3     
  17 C17            1.9816    -8.9531    -2.2527 C.ar    
  18 C18            1.0617    -9.5134    -3.1271 C.ar    
  19 C19            1.3577    -9.6102    -4.4722 C.ar    
  20 C20            2.5761    -9.1466    -4.9498 C.ar    
  21 C21            3.4963    -8.5859    -4.0744 C.ar    
  22 C22            3.1972    -8.4848    -2.7302 C.ar    
  23 N23            2.8775    -9.2451    -6.3164 N.pl3   
  24 N24            2.0472    -9.7852    -7.3069 N.2     
  25 C25            2.6715    -9.7020    -8.4544 C.2     
  26 C26            3.9181    -9.1071    -8.2325 C.2     
  27 C27            4.0184    -8.8303    -6.9114 C.2     
  28 C28            4.9622    -8.8193    -9.2803 C.3     
  29 F29            4.4964    -9.2401   -10.5306 F       
  30 F30            5.2195    -7.4446    -9.3171 F       
  31 F31            6.1399    -9.5059    -8.9661 F       
  32 C32            2.4897    -8.9001     1.3515 C.3     
  33 C33            2.3700   -10.4342     1.3389 C.3     
  34 C34            3.5106   -10.9726     2.2270 C.3     
  35 C35            3.8444    -9.7927     3.1733 C.3     
  36 C36            3.6989    -8.5599     2.2470 C.3     
  37 H37           -0.4279    -0.3606     0.8880 H       
  38 H38           -0.4418    -0.3514    -0.8918 H       
  39 H39            2.0272    -0.1230    -0.9100 H       
  40 H40            2.0412    -0.1322     0.8698 H       
  41 H41           -1.0494     3.1483     0.0157 H       
  42 H42            4.8513    -4.2594    -0.0643 H       
  43 H43            4.8517    -6.7189    -0.0758 H       
  44 H44            0.5854    -6.7392    -0.0424 H       
  45 H45            0.5628    -4.2798    -0.0197 H       
  46 H46            0.6912    -2.4473    -0.0215 H       
  47 H47            3.6909    -8.7380    -0.4294 H       
  48 H48            0.1140    -9.8744    -2.7555 H       
  49 H49            0.6417   -10.0467    -5.1528 H       
  50 H50            4.4443    -8.2252    -4.4453 H       
  51 H51            3.9112    -8.0447    -2.0499 H       
  52 H52            2.2901   -10.0355    -9.4082 H       
  53 H53            4.8599    -8.3643    -6.4204 H       
  54 H54            1.5827    -8.4582     1.7640 H       
  55 H55            1.4052   -10.7368     1.7460 H       
  56 H56            2.4804   -10.8089     0.3213 H       
  57 H57            3.1731   -11.8367     2.7992 H       
  58 H58            4.3777   -11.2312     1.6193 H       
  59 H59            3.1313    -9.7438     3.9962 H       
  60 H60            4.8643    -9.8754     3.5489 H       
  61 H61            4.5964    -8.4289     1.6424 H       
  62 H62            3.4988    -7.6633     2.8337 H       
@<TRIPOS>BOND
   1    1    2 1
   2    1    4 2
   3    1    5 1
   4    2    3 1
   5    2   37 1
   6    2   38 1
   7    3   14 1
   8    3   39 1
   9    3   40 1
  10    5   41 1
  11    6    7 1
  12    6   13 2
  13    6   14 am
  14    7    8 ar
  15    7   12 ar
  16    8    9 ar
  17    8   42 1
  18    9   10 ar
  19    9   43 1
  20   10   11 ar
  21   10   15 1
  22   11   12 ar
  23   11   44 1
  24   12   45 1
  25   14   46 1
  26   15   16 1
  27   15   32 1
  28   15   47 1
  29   16   17 1
  30   17   18 ar
  31   17   22 ar
  32   18   19 ar
  33   18   48 1
  34   19   20 ar
  35   19   49 1
  36   20   21 ar
  37   20   23 1
  38   21   22 ar
  39   21   50 1
  40   22   51 1
  41   23   24 1
  42   23   27 1
  43   24   25 2
  44   25   26 1
  45   25   52 1
  46   26   27 2
  47   26   28 1
  48   27   53 1
  49   28   29 1
  50   28   30 1
  51   28   31 1
  52   32   33 1
  53   32   36 1
  54   32   54 1
  55   33   34 1
  56   33   55 1
  57   33   56 1
  58   34   35 1
  59   34   57 1
  60   34   58 1
  61   35   36 1
  62   35   59 1
  63   35   60 1
  64   36   61 1
  65   36   62 1

#	End of record

