#	Name: ASD00431314
#	Creating user name:	WinNT
#	Creation time:	15. 06. 2019 18:35

#	Modifying user name:	WinNT
#	Modification time:	15. 06. 2019 18:35

#	Program:	/corina/corina34_cracker 3.40 0067  02.08.2006

@<TRIPOS>MOLECULE
ASD00431314
  55   57    0    0    0
SMALL
NO_CHARGES


@<TRIPOS>ATOM
   1 C1            -0.0866     1.2089     0.5763 C.2     
   2 N2            -0.0001    -0.0088     0.0053 N.am    
   3 O3             0.8946     1.7114     1.0876 O.2     
   4 O4            -1.2590     1.8712     0.5754 O.3     
   5 C5             1.2438    -0.6448    -0.1036 C.ar    
   6 C6             1.3302    -2.0258     0.0116 C.ar    
   7 C7             2.5561    -2.6520    -0.0962 C.ar    
   8 C8             3.7015    -1.9015    -0.3197 C.ar    
   9 C9             3.6157    -0.5215    -0.4348 C.ar    
  10 C10            2.3896     0.1053    -0.3324 C.ar    
  11 O11            4.9083    -2.5186    -0.4253 O.3     
  12 S12            6.5075    -4.2989    -1.7194 S.3     
  13 C13            5.1107    -3.3428    -1.4806 C.2     
  14 N14            4.2721    -3.5196    -2.4548 N.2     
  15 C15            4.6246    -4.3583    -3.4042 C.2     
  16 C16            5.8354    -4.9259    -3.2225 C.2     
  17 O17            6.7679    -7.1591    -5.7597 O.3     
  18 N18            5.9998    -6.3783    -5.2476 N.2     
  19 C19            6.4828    -5.9000    -4.1243 C.2     
  20 C20            7.7588    -6.5111    -3.9521 C.2     
  21 C21            7.8860    -7.3096    -5.0346 C.2     
  22 C22            9.0579    -8.1981    -5.3635 C.3     
  23 C23            8.7313    -9.6399    -4.9691 C.3     
  24 N24            9.3301    -8.1350    -6.8016 N.am    
  25 C25           10.5661    -8.4054    -7.2660 C.2     
  26 O26           11.4530    -8.7011    -6.4933 O.2     
  27 C27           10.8462    -8.3405    -8.7453 C.3     
  28 C28           -1.2786     3.1778     1.2084 C.3     
  29 C29           -0.2841     4.1015     0.5022 C.3     
  30 C30           -2.6852     3.7716     1.1092 C.3     
  31 C31           -0.8870     3.0372     2.6807 C.3     
  32 H32           -0.7988    -0.4450    -0.3303 H       
  33 H33            0.4387    -2.6100     0.1859 H       
  34 H34            2.6234    -3.7261    -0.0063 H       
  35 H35            4.5076     0.0622    -0.6088 H       
  36 H36            2.3225     1.1791    -0.4261 H       
  37 H37            3.9982    -4.5747    -4.2570 H       
  38 H38            8.4612    -6.3688    -3.1441 H       
  39 H39            9.9357    -7.8606    -4.8124 H       
  40 H40            9.5789   -10.2826    -5.2070 H       
  41 H41            8.5287    -9.6868    -3.8991 H       
  42 H42            7.8535    -9.9774    -5.5202 H       
  43 H43            8.6208    -7.8985    -7.4196 H       
  44 H44            9.9357    -8.0612    -9.2755 H       
  45 H45           11.6204    -7.5974    -8.9362 H       
  46 H46           11.1850    -9.3160    -9.0941 H       
  47 H47           -0.5630     4.2017    -0.5468 H       
  48 H48           -0.2988     5.0824     0.9773 H       
  49 H49            0.7180     3.6785     0.5729 H       
  50 H50           -3.3936     3.1135     1.6123 H       
  51 H51           -2.6998     4.7525     1.5843 H       
  52 H52           -2.9641     3.8718     0.0602 H       
  53 H53            0.1150     2.6142     2.7514 H       
  54 H54           -0.9017     4.0180     3.1559 H       
  55 H55           -1.5955     2.3791     3.1838 H       
@<TRIPOS>BOND
   1    1    2 am
   2    1    3 2
   3    1    4 1
   4    2    5 1
   5    2   32 1
   6    4   28 1
   7    5    6 ar
   8    5   10 ar
   9    6    7 ar
  10    6   33 1
  11    7    8 ar
  12    7   34 1
  13    8    9 ar
  14    8   11 1
  15    9   10 ar
  16    9   35 1
  17   10   36 1
  18   11   13 1
  19   12   13 1
  20   12   16 1
  21   13   14 2
  22   14   15 1
  23   15   16 2
  24   15   37 1
  25   16   19 1
  26   17   18 1
  27   17   21 1
  28   18   19 2
  29   19   20 1
  30   20   21 2
  31   20   38 1
  32   21   22 1
  33   22   23 1
  34   22   24 1
  35   22   39 1
  36   23   40 1
  37   23   41 1
  38   23   42 1
  39   24   25 am
  40   24   43 1
  41   25   26 2
  42   25   27 1
  43   27   44 1
  44   27   45 1
  45   27   46 1
  46   28   29 1
  47   28   31 1
  48   28   30 1
  49   29   47 1
  50   29   48 1
  51   29   49 1
  52   30   50 1
  53   30   51 1
  54   30   52 1
  55   31   53 1
  56   31   54 1
  57   31   55 1

#	End of record

