#	Name: ASD03430733
#	Creating user name:	WinNT
#	Creation time:	15. 06. 2019 20:41

#	Modifying user name:	WinNT
#	Modification time:	15. 06. 2019 20:41

#	Program:	/corina/corina34_cracker 3.40 0067  02.08.2006

@<TRIPOS>MOLECULE
ASD03430733
  58   64    0    0    0
SMALL
NO_CHARGES


@<TRIPOS>ATOM
   1 C1             2.2483     0.6984    -0.2277 C.ar    
   2 C2             1.7461    -0.5965    -0.1750 C.ar    
   3 C3             2.6152    -1.6711    -0.1040 C.ar    
   4 C4             3.9912    -1.4694    -0.0781 C.ar    
   5 C5             4.4847    -0.1685    -0.1391 C.ar    
   6 C6             3.6194     0.9044    -0.2132 C.ar    
   7 O7             4.6626    -2.6527     0.0201 O.3     
   8 C8             2.3984    -3.1593    -0.0556 C.3     
   9 C9             3.7889    -3.7281    -0.3733 C.3     
  10 C10            0.7001    -4.2871     1.0239 C.ar    
  11 C11            1.8984    -3.6243     1.2797 C.ar    
  12 C12            1.3697    -3.6193    -1.0482 C.2     
  13 N13            0.4197    -4.2668    -0.3445 N.am    
  14 O14            1.3893    -3.4423    -2.2479 O.2     
  15 C15            2.3769    -3.5149     2.5658 C.ar    
  16 C16            1.6692    -4.0681     3.6185 C.ar    
  17 C17            0.4801    -4.7305     3.3759 C.ar    
  18 C18           -0.0047    -4.8416     2.0889 C.ar    
  19 C19           -0.7684    -4.8786    -0.9449 C.3     
  20 O20            0.4032    -0.8216    -0.1978 O.3     
  21 C21           -0.4423     0.2922     0.1077 C.3     
  22 C22            0.0592     1.5087    -0.6820 C.3     
  23 O23            1.4112     1.7705    -0.2880 O.3     
  24 Cl24           6.1988     0.1053    -0.1218 Cl      
  25 C25           -1.9970    -4.4299    -0.1964 C.ar    
  26 C26           -3.0095    -5.3315     0.0737 C.ar    
  27 C27           -4.1365    -4.9199     0.7602 C.ar    
  28 C28           -4.2509    -3.6069     1.1769 C.ar    
  29 C29           -3.2381    -2.7055     0.9075 C.ar    
  30 C30           -2.1091    -3.1181     0.2249 C.ar    
  31 C31           -0.8765    -4.4558    -2.3873 C.ar    
  32 C32           -0.8347    -5.4056    -3.3909 C.ar    
  33 C33           -0.9338    -5.0178    -4.7140 C.ar    
  34 C34           -1.0753    -3.6804    -5.0336 C.ar    
  35 C35           -1.1180    -2.7307    -4.0299 C.ar    
  36 C36           -1.0232    -3.1189    -2.7066 C.ar    
  37 H37            4.0123     1.9093    -0.2600 H       
  38 H38            3.8875    -3.9372    -1.4385 H       
  39 H39            3.9855    -4.6226     0.2177 H       
  40 H40            3.3059    -2.9970     2.7534 H       
  41 H41            2.0451    -3.9829     4.6274 H       
  42 H42           -0.0716    -5.1632     4.1974 H       
  43 H43           -0.9344    -5.3602     1.9070 H       
  44 H44           -0.6854    -5.9640    -0.8896 H       
  45 H45           -1.4685     0.0645    -0.1807 H       
  46 H46           -0.3989     0.5043     1.1760 H       
  47 H47            0.0209     1.2949    -1.7502 H       
  48 H48           -0.5630     2.3750    -0.4573 H       
  49 H49           -2.9201    -6.3574    -0.2519 H       
  50 H50           -4.9278    -5.6242     0.9706 H       
  51 H51           -5.1318    -3.2851     1.7126 H       
  52 H52           -3.3276    -1.6795     1.2328 H       
  53 H53           -1.3161    -2.4148     0.0177 H       
  54 H54           -0.7242    -6.4505    -3.1412 H       
  55 H55           -0.9004    -5.7597    -5.4981 H       
  56 H56           -1.1520    -3.3773    -6.0673 H       
  57 H57           -1.2282    -1.6858    -4.2796 H       
  58 H58           -1.0604    -2.3773    -1.9223 H       
@<TRIPOS>BOND
   1    1    2 ar
   2    1    6 ar
   3    1   23 1
   4    2    3 ar
   5    2   20 1
   6    3    4 ar
   7    3    8 1
   8    4    5 ar
   9    4    7 1
  10    5    6 ar
  11    5   24 1
  12    6   37 1
  13    7    9 1
  14    8    9 1
  15    8   11 1
  16    8   12 1
  17    9   38 1
  18    9   39 1
  19   10   11 ar
  20   10   13 1
  21   10   18 ar
  22   11   15 ar
  23   12   13 am
  24   12   14 2
  25   13   19 1
  26   15   16 ar
  27   15   40 1
  28   16   17 ar
  29   16   41 1
  30   17   18 ar
  31   17   42 1
  32   18   43 1
  33   19   25 1
  34   19   31 1
  35   19   44 1
  36   20   21 1
  37   21   22 1
  38   21   45 1
  39   21   46 1
  40   22   23 1
  41   22   47 1
  42   22   48 1
  43   25   26 ar
  44   25   30 ar
  45   26   27 ar
  46   26   49 1
  47   27   28 ar
  48   27   50 1
  49   28   29 ar
  50   28   51 1
  51   29   30 ar
  52   29   52 1
  53   30   53 1
  54   31   32 ar
  55   31   36 ar
  56   32   33 ar
  57   32   54 1
  58   33   34 ar
  59   33   55 1
  60   34   35 ar
  61   34   56 1
  62   35   36 ar
  63   35   57 1
  64   36   58 1

#	End of record

