#	Name: ASD01882419
#	Creating user name:	WinNT
#	Creation time:	15. 06. 2019 19:44

#	Modifying user name:	WinNT
#	Modification time:	15. 06. 2019 19:44

#	Program:	/corina/corina34_cracker 3.40 0067  02.08.2006

@<TRIPOS>MOLECULE
ASD01882419
  60   65    0    0    0
SMALL
NO_CHARGES


@<TRIPOS>ATOM
   1 C1            -0.3603     1.3070     0.4720 C.3     
   2 O2             0.0915    -0.0262     0.7590 O.3     
   3 C3             1.3922    -0.1151     0.1476 C.3     
   4 C4             1.9470     1.2905     0.1439 C.ar    
   5 C5             3.2226     1.7911    -0.0117 C.ar    
   6 C6             3.4381     3.1587     0.0310 C.ar    
   7 C7             2.3728     4.0210     0.2296 C.ar    
   8 C8             1.0949     3.5172     0.3852 C.ar    
   9 C9             0.8805     2.1548     0.3417 C.ar    
  10 N10           -3.1390     0.8128     0.4753 N.pl3   
  11 C11           -2.3667     0.4017    -0.7051 C.3     
  12 C12           -1.1455     1.3179    -0.8382 C.3     
  13 C13           -1.2312     1.8184     1.6177 C.3     
  14 C14           -2.4539     0.9075     1.7716 C.3     
  15 C15            2.2977    -1.0370     0.9668 C.3     
  16 C16            1.2666    -0.6360    -1.2855 C.3     
  17 F17            4.6870     3.6512    -0.1206 F       
  18 C18           -6.7947     0.5221     0.6659 C.2     
  19 C19           -5.4317     0.2015     0.7847 C.2     
  20 C20           -4.4947     1.1074     0.3674 C.2     
  21 C21           -4.9125     2.3433    -0.1728 C.2     
  22 C22           -6.2248     2.6300    -0.2774 C.2     
  23 N23           -7.1668     1.7336     0.1357 N.pl3   
  24 N24           -8.9257     0.6064     0.6613 N.2     
  25 N25           -7.9111    -0.1242     0.9653 N.2     
  26 C26           -8.5307     1.7440     0.1534 C.2     
  27 C27           -5.0071    -1.1231     1.3646 C.3     
  28 F28           -4.6680    -0.9552     2.7114 F       
  29 F29           -6.0608    -2.0374     1.2595 F       
  30 F30           -3.8985    -1.6063     0.6613 F       
  31 C31           -9.4198     2.8623    -0.3262 C.3     
  32 C32           -9.7423     2.6577    -1.8078 C.3     
  33 C33          -10.7319     3.6281    -2.4559 C.3     
  34 C34           -9.2420     3.7165    -2.7924 C.3     
  35 H35            4.0526     1.1176    -0.1663 H       
  36 H36            2.5405     5.0874     0.2633 H       
  37 H37            0.2644     4.1899     0.5407 H       
  38 H38           -2.0378    -0.6306    -0.5855 H       
  39 H39           -2.9877     0.4887    -1.5967 H       
  40 H40           -1.4749     2.3337    -1.0565 H       
  41 H41           -0.5085     0.9598    -1.6470 H       
  42 H42           -0.6550     1.8132     2.5429 H       
  43 H43           -1.5598     2.8345     1.3992 H       
  44 H44           -3.1323     1.3287     2.5135 H       
  45 H45           -2.1328    -0.0847     2.0886 H       
  46 H46            1.8691    -2.0389     0.9918 H       
  47 H47            3.2862    -1.0760     0.5090 H       
  48 H48            2.3830    -0.6529     1.9834 H       
  49 H49            0.7929     0.1233    -1.9078 H       
  50 H50            2.2580    -0.8611    -1.6785 H       
  51 H51            0.6593    -1.5411    -1.2912 H       
  52 H52           -4.1770     3.0619    -0.5032 H       
  53 H53           -6.5339     3.5781    -0.6920 H       
  54 H54          -10.3449     2.8637     0.2502 H       
  55 H55           -8.9079     3.8155    -0.1940 H       
  56 H56           -9.7577     1.6219    -2.1469 H       
  57 H57          -11.3981     3.2307    -3.2216 H       
  58 H58          -11.1532     4.4122    -1.8268 H       
  59 H59           -8.6831     4.5588    -2.3847 H       
  60 H60           -8.9280     3.3774    -3.7796 H       
@<TRIPOS>BOND
   1    1    2 1
   2    1    9 1
   3    1   12 1
   4    1   13 1
   5    2    3 1
   6    3    4 1
   7    3   15 1
   8    3   16 1
   9    4    5 ar
  10    4    9 ar
  11    5    6 ar
  12    5   35 1
  13    6    7 ar
  14    6   17 1
  15    7    8 ar
  16    7   36 1
  17    8    9 ar
  18    8   37 1
  19   10   11 1
  20   10   14 1
  21   10   20 1
  22   11   12 1
  23   11   38 1
  24   11   39 1
  25   12   40 1
  26   12   41 1
  27   13   14 1
  28   13   42 1
  29   13   43 1
  30   14   44 1
  31   14   45 1
  32   15   46 1
  33   15   47 1
  34   15   48 1
  35   16   49 1
  36   16   50 1
  37   16   51 1
  38   18   19 1
  39   18   23 1
  40   18   25 2
  41   19   20 2
  42   19   27 1
  43   20   21 1
  44   21   22 2
  45   21   52 1
  46   22   23 1
  47   22   53 1
  48   23   26 1
  49   24   25 1
  50   24   26 2
  51   26   31 1
  52   27   28 1
  53   27   29 1
  54   27   30 1
  55   31   32 1
  56   31   54 1
  57   31   55 1
  58   32   33 1
  59   32   34 1
  60   32   56 1
  61   33   34 1
  62   33   57 1
  63   33   58 1
  64   34   59 1
  65   34   60 1

#	End of record

