#	Name: ASD01230192
#	Creating user name:	WinNT
#	Creation time:	15. 06. 2019 19:12

#	Modifying user name:	WinNT
#	Modification time:	15. 06. 2019 19:12

#	Program:	/corina/corina34_cracker 3.40 0067  02.08.2006

@<TRIPOS>MOLECULE
ASD01230192
  46   49    0    0    0
SMALL
NO_CHARGES


@<TRIPOS>ATOM
   1 S1             1.9565    -4.0155    -3.1749 S.o2    
   2 N2             1.3089    -3.5249    -1.7328 N.am    
   3 C3             1.9352    -2.7011    -0.9351 C.2     
   4 N4             3.1625    -2.1488    -1.1687 N.pl3   
   5 C5             3.9919    -2.4458    -2.3357 C.3     
   6 C6             3.1172    -2.6707    -3.5732 C.3     
   7 C7             1.2446    -2.3419     0.3270 C.2     
   8 N8             1.8100    -1.4925     1.1549 N.2     
   9 C9             2.9934    -0.9500     0.8736 C.2     
  10 C10            3.6664    -1.2563    -0.2510 C.2     
  11 C11           -0.0707    -2.9350     0.6514 C.ar    
  12 C12           -0.3772    -4.2306     0.2309 C.ar    
  13 C13           -1.6041    -4.7798     0.5351 C.ar    
  14 C14           -2.5351    -4.0461     1.2591 C.ar    
  15 C15           -2.2342    -2.7567     1.6790 C.ar    
  16 C16           -1.0071    -2.2029     1.3840 C.ar    
  17 O17           -3.7433    -4.5908     1.5571 O.3     
  18 C18           -4.6979    -3.7415     2.1970 C.3     
  19 C19           -6.1111    -4.2435     1.8943 C.3     
  20 C20           -7.1331    -3.3341     2.5795 C.3     
  21 C21           -6.8986    -3.3517     4.0913 C.3     
  22 C22           -5.4854    -2.8496     4.3940 C.3     
  23 C23           -4.4634    -3.7590     3.7089 C.3     
  24 O24            2.6581    -5.2113    -2.8631 O.2     
  25 O25            0.8587    -4.0178    -4.0772 O.2     
  26 H26            4.6669    -1.6098    -2.5194 H       
  27 H27            4.5777    -3.3442    -2.1413 H       
  28 H28            3.7399    -2.9567    -4.4209 H       
  29 H29            2.5647    -1.7608    -3.8077 H       
  30 H30            3.4251    -0.2439     1.5675 H       
  31 H31            4.6233    -0.7914    -0.4370 H       
  32 H32            0.3460    -4.8016    -0.3325 H       
  33 H33           -1.8421    -5.7818     0.2098 H       
  34 H34           -2.9609    -2.1891     2.2411 H       
  35 H35           -0.7718    -1.2022     1.7152 H       
  36 H36           -4.5862    -2.7235     1.8238 H       
  37 H37           -6.2781    -4.2310     0.8172 H       
  38 H38           -6.2227    -5.2615     2.2675 H       
  39 H39           -7.0214    -2.3161     2.2062 H       
  40 H40           -8.1399    -3.6918     2.3638 H       
  41 H41           -7.6267    -2.7038     4.5794 H       
  42 H42           -7.0102    -4.3697     4.4645 H       
  43 H43           -5.3737    -1.8316     4.0208 H       
  44 H44           -5.3183    -2.8621     5.4711 H       
  45 H45           -4.5750    -4.7770     4.0821 H       
  46 H46           -3.4566    -3.4013     3.9245 H       
@<TRIPOS>BOND
   1    1    2 am
   2    1    6 1
   3    1   24 2
   4    1   25 2
   5    2    3 2
   6    3    4 1
   7    3    7 1
   8    4    5 1
   9    4   10 1
  10    5    6 1
  11    5   26 1
  12    5   27 1
  13    6   28 1
  14    6   29 1
  15    7    8 2
  16    7   11 1
  17    8    9 1
  18    9   10 2
  19    9   30 1
  20   10   31 1
  21   11   12 ar
  22   11   16 ar
  23   12   13 ar
  24   12   32 1
  25   13   14 ar
  26   13   33 1
  27   14   15 ar
  28   14   17 1
  29   15   16 ar
  30   15   34 1
  31   16   35 1
  32   17   18 1
  33   18   19 1
  34   18   23 1
  35   18   36 1
  36   19   20 1
  37   19   37 1
  38   19   38 1
  39   20   21 1
  40   20   39 1
  41   20   40 1
  42   21   22 1
  43   21   41 1
  44   21   42 1
  45   22   23 1
  46   22   43 1
  47   22   44 1
  48   23   45 1
  49   23   46 1

#	End of record

