#	Name: ASD01911728
#	Creating user name:	WinNT
#	Creation time:	15. 06. 2019 19:58

#	Modifying user name:	WinNT
#	Modification time:	15. 06. 2019 19:58

#	Program:	/corina/corina34_cracker 3.40 0067  02.08.2006

@<TRIPOS>MOLECULE
ASD01911728
  36   38    0    0    0
SMALL
NO_CHARGES


@<TRIPOS>ATOM
   1 N1             0.0316     1.1536    -0.6874 N.am    
   2 C2             0.0021    -0.0041     0.0020 C.2     
   3 C3            -1.2508    -0.7543     0.1205 C.2     
   4 C4            -1.3862    -2.1135     0.0310 C.2     
   5 S5            -2.8471    -0.0659     0.4110 S.3     
   6 C6            -3.5482    -1.6812     0.3759 C.2     
   7 N7            -2.6016    -2.5625     0.1683 N.2     
   8 C8            -4.9366    -1.9845     0.5525 C.1     
   9 C9            -6.0748    -2.2331     0.6972 C.1     
  10 C10           -7.4631    -2.5363     0.8738 C.ar    
  11 C11           -7.9140    -3.8591     0.8271 C.ar    
  12 N12           -9.1904    -4.1366     0.9900 N.ar    
  13 C13          -10.0879    -3.1925     1.2014 C.ar    
  14 C14           -9.7232    -1.8594     1.2615 C.ar    
  15 C15           -8.3935    -1.5126     1.1022 C.ar    
  16 O16            1.0162    -0.4263     0.5262 O.2     
  17 C17           -1.1498     1.6126    -1.4307 C.3     
  18 C18           -1.4877     3.0395    -0.9871 C.3     
  19 C19           -0.2535     3.9282    -1.1575 C.3     
  20 C20            0.8809     3.4036    -0.2742 C.3     
  21 C21            1.2438     1.9837    -0.7051 C.3     
  22 H22           -0.5445    -2.7679    -0.1417 H       
  23 H23           -7.2094    -4.6595     0.6557 H       
  24 H24          -11.1250    -3.4653     1.3293 H       
  25 H25          -10.4686    -1.0973     1.4349 H       
  26 H26           -8.0814    -0.4796     1.1446 H       
  27 H27           -0.9355     1.6033    -2.4994 H       
  28 H28           -1.9928     0.9549    -1.2192 H       
  29 H29           -2.3024     3.4272    -1.5986 H       
  30 H30           -1.7895     3.0330     0.0603 H       
  31 H31            0.0626     3.9146    -2.2006 H       
  32 H32           -0.4983     4.9495    -0.8657 H       
  33 H33            1.7519     4.0505    -0.3782 H       
  34 H34            0.5567     3.3937     0.7665 H       
  35 H35            1.9813     1.5703    -0.0171 H       
  36 H36            1.6531     2.0017    -1.7151 H       
@<TRIPOS>BOND
   1    1    2 am
   2    1   17 1
   3    1   21 1
   4    2    3 1
   5    2   16 2
   6    3    4 2
   7    3    5 1
   8    4    7 1
   9    4   22 1
  10    5    6 1
  11    6    7 2
  12    6    8 1
  13    8    9 3
  14    9   10 1
  15   10   11 ar
  16   10   15 ar
  17   11   12 ar
  18   11   23 1
  19   12   13 ar
  20   13   14 ar
  21   13   24 1
  22   14   15 ar
  23   14   25 1
  24   15   26 1
  25   17   18 1
  26   17   27 1
  27   17   28 1
  28   18   19 1
  29   18   29 1
  30   18   30 1
  31   19   20 1
  32   19   31 1
  33   19   32 1
  34   20   21 1
  35   20   33 1
  36   20   34 1
  37   21   35 1
  38   21   36 1

#	End of record

