#	Name: ASD08150393
#	Creating user name:	WinNT
#	Creation time:	15. 06. 2019 21:15

#	Modifying user name:	WinNT
#	Modification time:	15. 06. 2019 21:15

#	Program:	/corina/corina34_cracker 3.40 0067  02.08.2006

@<TRIPOS>MOLECULE
ASD08150393
 104  108    0    0    0
SMALL
NO_CHARGES


@<TRIPOS>ATOM
   1 N1             0.5536    -1.0823     0.3207 N.2     
   2 C2            -0.3616    -0.7630    -0.5432 C.2     
   3 N3            -0.0894    -0.1619    -1.7330 N.am    
   4 C4             1.1847     0.1380    -2.0774 C.2     
   5 C5             2.2446    -0.2109    -1.1203 C.ar    
   6 C6             3.5878     0.0555    -1.3790 C.ar    
   7 C7             4.5405    -0.2921    -0.4467 C.ar    
   8 C8             4.1727    -0.9040     0.7446 C.ar    
   9 C9             2.8515    -1.1763     1.0193 C.ar    
  10 C10            1.8670    -0.8331     0.0903 C.ar    
  11 O11            1.4430     0.6753    -3.1387 O.2     
  12 C12            3.9951     0.7187    -2.6695 C.3     
  13 C13           -1.1368     0.1489    -2.6094 C.ar    
  14 C14           -1.5175     1.4704    -2.7961 C.ar    
  15 C15           -2.5544     1.7741    -3.6640 C.ar    
  16 C16           -3.2095     0.7568    -4.3441 C.ar    
  17 C17           -2.8291    -0.5583    -4.1569 C.ar    
  18 C18           -1.7920    -0.8644    -3.2968 C.ar    
  19 O19           -2.9299     3.0671    -3.8487 O.3     
  20 C20           -1.7982    -1.0746    -0.2114 C.3     
  21 C21           -1.8493    -2.0645     0.9541 C.3     
  22 N22           -2.4911     0.1599     0.1657 N.pl3   
  23 N23           -4.2084     2.5433     1.0650 N.2     
  24 C24           -5.2631     3.2868     1.2310 C.2     
  25 N25           -6.3503     2.6854     0.6681 N.pl3   
  26 C26           -5.9282     1.4985     0.1246 C.ar    
  27 N27           -6.5179     0.5086    -0.5375 N.ar    
  28 C28           -5.8203    -0.5374    -0.9453 C.ar    
  29 N29           -4.5194    -0.6534    -0.7187 N.ar    
  30 C30           -3.8493     0.2891    -0.0650 C.ar    
  31 C31           -4.5501     1.4204     0.3871 C.ar    
  32 C32           -7.7180     3.2101     0.6484 C.3     
  33 O33           -7.7537     4.4721     1.3177 O.3     
  34 C34           -9.0494     5.0737     1.3551 C.3     
  35 C35           -8.9689     6.4126     2.0913 C.3     
  36 Si36         -10.6581     7.1969     2.1400 Si      
  37 C37          -11.8415     6.0679     3.0319 C.3     
  38 C38          -10.5602     8.8272     3.0364 C.3     
  39 C39          -11.2617     7.4800     0.4004 C.3     
  40 N40           -6.4760    -1.5550    -1.6369 N.am    
  41 C41           -5.8138    -2.6822    -1.9645 C.2     
  42 O42           -6.3526    -3.5243    -2.6543 O.2     
  43 O43           -4.5556    -2.8748    -1.5273 O.3     
  44 C44           -3.9405    -4.1543    -1.8318 C.3     
  45 C45           -3.8495    -4.3282    -3.3492 C.3     
  46 C46           -2.5355    -4.2014    -1.2279 C.3     
  47 C47           -4.7884    -5.2817    -1.2392 C.3     
  48 C48           -7.7720    -1.4115    -1.9778 C.2     
  49 O49           -8.3432    -2.2980    -2.5802 O.2     
  50 O50           -8.4332    -0.2859    -1.6506 O.3     
  51 C51           -9.8266    -0.2002    -2.0498 C.3     
  52 C52          -10.6135    -1.3419    -1.4032 C.3     
  53 C53          -10.4061     1.1406    -1.5944 C.3     
  54 C54           -9.9285    -0.3090    -3.5726 C.3     
  55 H55            5.5824    -0.0875    -0.6441 H       
  56 H56            4.9328    -1.1699     1.4644 H       
  57 H57            2.5777    -1.6532     1.9488 H       
  58 H58            3.8835     1.7988    -2.5740 H       
  59 H59            5.0356     0.4789    -2.8886 H       
  60 H60            3.3609     0.3581    -3.4793 H       
  61 H61           -1.0069     2.2606    -2.2658 H       
  62 H62           -4.0178     0.9934    -5.0202 H       
  63 H63           -3.3404    -1.3480    -4.6873 H       
  64 H64           -1.4934    -1.8927    -3.1559 H       
  65 H65           -2.4610     3.5140    -4.5667 H       
  66 H66           -2.2854    -1.5132    -1.0822 H       
  67 H67           -1.2336    -2.9330     0.7204 H       
  68 H68           -1.4714    -1.5834     1.8563 H       
  69 H69           -2.8793    -2.3823     1.1160 H       
  70 H70           -1.9977     0.8867     0.5771 H       
  71 H71           -5.2759     4.2396     1.7393 H       
  72 H72           -8.0435     3.3371    -0.3841 H       
  73 H73           -8.3828     2.5109     1.1556 H       
  74 H74           -9.4025     5.2394     0.3373 H       
  75 H75           -9.7418     4.4132     1.8770 H       
  76 H76           -8.6158     6.2469     3.1091 H       
  77 H77           -8.2765     7.0732     1.5694 H       
  78 H78          -11.4884     5.9022     4.0497 H       
  79 H79          -12.8298     6.5268     3.0604 H       
  80 H80          -11.8988     5.1141     2.5075 H       
  81 H81           -9.8678     9.4877     2.5145 H       
  82 H82          -11.5485     9.2860     3.0649 H       
  83 H83          -10.2070     8.6615     4.0542 H       
  84 H84          -11.3190     6.5262    -0.1241 H       
  85 H85          -12.2500     7.9389     0.4289 H       
  86 H86          -10.5693     8.1406    -0.1215 H       
  87 H87           -3.2455    -3.5250    -3.7713 H       
  88 H88           -3.3877    -5.2887    -3.5778 H       
  89 H89           -4.8504    -4.2947    -3.7794 H       
  90 H90           -2.5980    -4.0496    -0.1503 H       
  91 H91           -2.0844    -5.1723    -1.4325 H       
  92 H92           -1.9233    -3.4157    -1.6706 H       
  93 H93           -5.8045    -5.2149    -1.6280 H       
  94 H94           -4.3567    -6.2440    -1.5143 H       
  95 H95           -4.8079    -5.1893    -0.1533 H       
  96 H96          -10.5410    -1.2644    -0.3184 H       
  97 H97          -11.6596    -1.2776    -1.7029 H       
  98 H98          -10.2007    -2.2971    -1.7276 H       
  99 H99           -9.8455     1.9540    -2.0551 H       
 100 H100         -11.4521     1.2049    -1.8941 H       
 101 H101         -10.3335     1.2181    -0.5096 H       
 102 H102          -9.5157    -1.2642    -3.8970 H       
 103 H103         -10.9745    -0.2447    -3.8722 H       
 104 H104          -9.3679     0.5044    -4.0333 H       
@<TRIPOS>BOND
   1    1    2 2
   2    1   10 1
   3    2    3 1
   4    2   20 1
   5    3    4 am
   6    3   13 1
   7    4    5 1
   8    4   11 2
   9    5    6 ar
  10    5   10 ar
  11    6    7 ar
  12    6   12 1
  13    7    8 ar
  14    7   55 1
  15    8    9 ar
  16    8   56 1
  17    9   10 ar
  18    9   57 1
  19   12   58 1
  20   12   59 1
  21   12   60 1
  22   13   14 ar
  23   13   18 ar
  24   14   15 ar
  25   14   61 1
  26   15   16 ar
  27   15   19 1
  28   16   17 ar
  29   16   62 1
  30   17   18 ar
  31   17   63 1
  32   18   64 1
  33   19   65 1
  34   20   21 1
  35   20   22 1
  36   20   66 1
  37   21   67 1
  38   21   68 1
  39   21   69 1
  40   22   30 1
  41   22   70 1
  42   23   24 2
  43   23   31 1
  44   24   25 1
  45   24   71 1
  46   25   26 1
  47   25   32 1
  48   26   27 ar
  49   26   31 ar
  50   27   28 ar
  51   28   29 ar
  52   28   40 1
  53   29   30 ar
  54   30   31 ar
  55   32   33 1
  56   32   72 1
  57   32   73 1
  58   33   34 1
  59   34   35 1
  60   34   74 1
  61   34   75 1
  62   35   36 1
  63   35   76 1
  64   35   77 1
  65   36   37 1
  66   36   38 1
  67   36   39 1
  68   37   78 1
  69   37   79 1
  70   37   80 1
  71   38   81 1
  72   38   82 1
  73   38   83 1
  74   39   84 1
  75   39   85 1
  76   39   86 1
  77   40   41 am
  78   40   48 am
  79   41   42 2
  80   41   43 1
  81   43   44 1
  82   44   45 1
  83   44   47 1
  84   44   46 1
  85   45   87 1
  86   45   88 1
  87   45   89 1
  88   46   90 1
  89   46   91 1
  90   46   92 1
  91   47   93 1
  92   47   94 1
  93   47   95 1
  94   48   49 2
  95   48   50 1
  96   50   51 1
  97   51   52 1
  98   51   54 1
  99   51   53 1
 100   52   96 1
 101   52   97 1
 102   52   98 1
 103   53   99 1
 104   53  100 1
 105   53  101 1
 106   54  102 1
 107   54  103 1
 108   54  104 1

#	End of record

