#	Name: ASD01911485
#	Creating user name:	WinNT
#	Creation time:	15. 06. 2019 19:57

#	Modifying user name:	WinNT
#	Modification time:	15. 06. 2019 19:57

#	Program:	/corina/corina34_cracker 3.40 0067  02.08.2006

@<TRIPOS>MOLECULE
ASD01911485
  45   45    0    0    0
SMALL
NO_CHARGES


@<TRIPOS>ATOM
   1 C1            -0.0162     1.3436     0.0094 C.2     
   2 N2             0.0021    -0.0041     0.0020 N.am    
   3 O3             1.0277     1.9654     0.0028 O.2     
   4 O4            -1.1912     2.0008     0.0186 O.3     
   5 C5             1.2806    -0.7192    -0.0140 C.3     
   6 C6             1.0214    -2.2271    -0.0197 C.3     
   7 C7             2.3566    -2.9740    -0.0364 C.3     
   8 C8             2.0658    -0.3320    -1.2688 C.3     
   9 C9             2.0897    -0.3454     1.2296 C.3     
  10 N10            2.1085    -4.4178    -0.0418 N.pl3   
  11 C11            3.1773    -5.3068    -0.0568 C.ar    
  12 C12            4.4801    -4.8183    -0.0666 C.ar    
  13 C13            5.5340    -5.7136    -0.0815 C.ar    
  14 C14            5.2488    -7.0733    -0.0860 C.ar    
  15 C15            3.9318    -7.4879    -0.0757 C.ar    
  16 N16            2.9463    -6.6104    -0.0561 N.ar    
  17 I17            6.8010    -8.4802    -0.1091 I       
  18 C18           -1.1349     3.4517     0.0262 C.3     
  19 C19           -0.4003     3.9401    -1.2239 C.3     
  20 C20           -2.5565     4.0172     0.0360 C.3     
  21 C21           -0.3885     3.9266     1.2745 C.3     
  22 H22           -0.8313    -0.5005     0.0073 H       
  23 H23            0.4620    -2.5030     0.8742 H       
  24 H24            0.4450    -2.4934    -0.9056 H       
  25 H25            2.9161    -2.6981    -0.9303 H       
  26 H26            2.9331    -2.7077     0.8495 H       
  27 H27            2.2504     0.7422    -1.2648 H       
  28 H28            3.0170    -0.8641    -1.2807 H       
  29 H29            1.4894    -0.5983    -2.1547 H       
  30 H30            1.5302    -0.6213     2.1235 H       
  31 H31            3.0409    -0.8775     1.2176 H       
  32 H32            2.2743     0.7288     1.2336 H       
  33 H33            1.1985    -4.7536    -0.0349 H       
  34 H34            4.6657    -3.7544    -0.0630 H       
  35 H35            6.5557    -5.3637    -0.0897 H       
  36 H36            3.7054    -8.5439    -0.0796 H       
  37 H37           -0.9321     3.6018    -2.1132 H       
  38 H38           -0.3581     5.0293    -1.2182 H       
  39 H39            0.6125     3.5373    -1.2309 H       
  40 H40           -3.0798     3.6692     0.9266 H       
  41 H41           -2.5142     5.1064     0.0417 H       
  42 H42           -3.0883     3.6789    -0.8533 H       
  43 H43            0.6243     3.5237     1.2675 H       
  44 H44           -0.3462     5.0157     1.2802 H       
  45 H45           -0.9118     3.5786     2.1651 H       
@<TRIPOS>BOND
   1    1    2 am
   2    1    3 2
   3    1    4 1
   4    2    5 1
   5    2   22 1
   6    4   18 1
   7    5    6 1
   8    5    8 1
   9    5    9 1
  10    6    7 1
  11    6   23 1
  12    6   24 1
  13    7   10 1
  14    7   25 1
  15    7   26 1
  16    8   27 1
  17    8   28 1
  18    8   29 1
  19    9   30 1
  20    9   31 1
  21    9   32 1
  22   10   11 1
  23   10   33 1
  24   11   12 ar
  25   11   16 ar
  26   12   13 ar
  27   12   34 1
  28   13   14 ar
  29   13   35 1
  30   14   15 ar
  31   14   17 1
  32   15   16 ar
  33   15   36 1
  34   18   19 1
  35   18   21 1
  36   18   20 1
  37   19   37 1
  38   19   38 1
  39   19   39 1
  40   20   40 1
  41   20   41 1
  42   20   42 1
  43   21   43 1
  44   21   44 1
  45   21   45 1

#	End of record

