#	Name: ASD01910170
#	Creating user name:	WinNT
#	Creation time:	15. 06. 2019 19:55

#	Modifying user name:	WinNT
#	Modification time:	15. 06. 2019 19:55

#	Program:	/corina/corina34_cracker 3.40 0067  02.08.2006

@<TRIPOS>MOLECULE
ASD01910170
  41   42    0    0    0
SMALL
NO_CHARGES


@<TRIPOS>ATOM
   1 C1            -0.2187     1.3749     0.0962 C.ar    
   2 C2             0.0372     0.0375     0.3289 C.ar    
   3 C3             1.3445    -0.4331     0.3197 C.ar    
   4 C4             2.3933     0.4415     0.0760 C.ar    
   5 C5             2.1329     1.7845    -0.1579 C.ar    
   6 C6             0.8236     2.2488    -0.1468 C.ar    
   7 N7             3.1875     2.6697    -0.4035 N.am    
   8 C8             4.2616     2.2596    -1.1068 C.2     
   9 C9             5.3265     3.2196    -1.4535 C.ar    
  10 N10            1.6029    -1.7878     0.5564 N.am    
  11 C11            0.7250    -2.7234     0.1437 C.2     
  12 C12            5.2259     4.5545    -1.0549 C.ar    
  13 C13            6.2245     5.4464    -1.3820 C.ar    
  14 C14            7.3282     5.0255    -2.1052 C.ar    
  15 C15            7.4401     3.7086    -2.5060 C.ar    
  16 C16            6.4482     2.7961    -2.1799 C.ar    
  17 O17           -0.2419    -2.3999    -0.5131 O.2     
  18 O18            4.3527     1.0983    -1.4556 O.2     
  19 O19            6.5570     1.5022    -2.5726 O.3     
  20 C20            7.7216     1.1470    -3.3207 C.3     
  21 C21            0.9448    -4.1715     0.4984 C.3     
  22 O22           -0.1126    -4.9617    -0.0489 O.3     
  23 C23            0.0008    -6.3584     0.2312 C.3     
  24 H24           -1.2361     1.7374     0.0998 H       
  25 H25           -0.7797    -0.6430     0.5185 H       
  26 H26            3.4104     0.0783     0.0687 H       
  27 H27            0.6203     3.2937    -0.3287 H       
  28 H28            3.1459     3.5787    -0.0677 H       
  29 H29            2.4139    -2.0535     1.0175 H       
  30 H30            4.3668     4.8873    -0.4914 H       
  31 H31            6.1457     6.4784    -1.0734 H       
  32 H32            8.1057     5.7313    -2.3575 H       
  33 H33            8.3034     3.3882    -3.0703 H       
  34 H34            7.7579     1.7353    -4.2375 H       
  35 H35            8.6117     1.3479    -2.7245 H       
  36 H36            7.6834     0.0867    -3.5706 H       
  37 H37            1.8978    -4.5054     0.0881 H       
  38 H38            0.9572    -4.2821     1.5827 H       
  39 H39            0.9343    -6.7378    -0.1847 H       
  40 H40           -0.0063    -6.5144     1.3099 H       
  41 H41           -0.8390    -6.8884    -0.2182 H       
@<TRIPOS>BOND
   1    1    2 ar
   2    1    6 ar
   3    1   24 1
   4    2    3 ar
   5    2   25 1
   6    3    4 ar
   7    3   10 1
   8    4    5 ar
   9    4   26 1
  10    5    6 ar
  11    5    7 1
  12    6   27 1
  13    7    8 am
  14    7   28 1
  15    8    9 1
  16    8   18 2
  17    9   12 ar
  18    9   16 ar
  19   10   11 am
  20   10   29 1
  21   11   17 2
  22   11   21 1
  23   12   13 ar
  24   12   30 1
  25   13   14 ar
  26   13   31 1
  27   14   15 ar
  28   14   32 1
  29   15   16 ar
  30   15   33 1
  31   16   19 1
  32   19   20 1
  33   20   34 1
  34   20   35 1
  35   20   36 1
  36   21   22 1
  37   21   37 1
  38   21   38 1
  39   22   23 1
  40   23   39 1
  41   23   40 1
  42   23   41 1

#	End of record

