#	Name: ASD03080030
#	Creating user name:	WinNT
#	Creation time:	15. 06. 2019 20:26

#	Modifying user name:	WinNT
#	Modification time:	15. 06. 2019 20:26

#	Program:	/corina/corina34_cracker 3.40 0067  02.08.2006

@<TRIPOS>MOLECULE
ASD03080030
  26   28    0    0    0
SMALL
NO_CHARGES


@<TRIPOS>ATOM
   1 O1            -0.0144     1.2085     0.0087 O.3     
   2 N2             0.0021    -0.0041     0.0020 N.2     
   3 C3             1.2349    -0.4422    -0.0121 C.2     
   4 N4             2.0457     0.6364    -0.0141 N.2     
   5 C5             1.2411     1.6828    -0.0008 C.2     
   6 C6             3.0155    -2.1955    -0.0380 C.ar    
   7 C7             1.6626    -1.8636    -0.0238 C.ar    
   8 C8             0.7149    -2.8901    -0.0203 C.ar    
   9 C9             1.1650    -4.1995    -0.0312 C.ar    
  10 C10            2.5253    -4.4469    -0.0450 C.ar    
  11 N11            3.3965    -3.4564    -0.0480 N.ar    
  12 C12            1.6453     3.1041     0.0026 C.ar    
  13 C13            0.6754     4.1082     0.0173 C.ar    
  14 C14            1.0580     5.4328     0.0203 C.ar    
  15 C15            2.4030     5.7683     0.0083 C.ar    
  16 C16            3.3701     4.7753    -0.0068 C.ar    
  17 C17            2.9986     3.4476    -0.0032 C.ar    
  18 F18            2.7725     7.0678     0.0109 F       
  19 H19            3.7587    -1.4119    -0.0454 H       
  20 H20           -0.3419    -2.6679    -0.0091 H       
  21 H21            0.4611    -5.0187    -0.0285 H       
  22 H22            2.8800    -5.4670    -0.0532 H       
  23 H23           -0.3727     3.8479     0.0259 H       
  24 H24            0.3086     6.2103     0.0317 H       
  25 H25            4.4166     5.0422    -0.0165 H       
  26 H26            3.7529     2.6747    -0.0101 H       
@<TRIPOS>BOND
   1    1    2 1
   2    1    5 1
   3    2    3 2
   4    3    4 1
   5    3    7 1
   6    4    5 2
   7    5   12 1
   8    6    7 ar
   9    6   11 ar
  10    6   19 1
  11    7    8 ar
  12    8    9 ar
  13    8   20 1
  14    9   10 ar
  15    9   21 1
  16   10   11 ar
  17   10   22 1
  18   12   13 ar
  19   12   17 ar
  20   13   14 ar
  21   13   23 1
  22   14   15 ar
  23   14   24 1
  24   15   16 ar
  25   15   18 1
  26   16   17 ar
  27   16   25 1
  28   17   26 1

#	End of record

