#	Name: ASD02408375
#	Creating user name:	WinNT
#	Creation time:	15. 06. 2019 20:21

#	Modifying user name:	WinNT
#	Modification time:	15. 06. 2019 20:21

#	Program:	/corina/corina34_cracker 3.40 0067  02.08.2006

@<TRIPOS>MOLECULE
ASD02408375
  28   29    0    0    0
SMALL
NO_CHARGES


@<TRIPOS>ATOM
   1 C1             0.1217     1.1779     1.2811 C.2     
   2 C2            -0.0114     0.2449     0.2263 C.2     
   3 C3             1.4751     1.4890     1.3813 C.2     
   4 N4             2.1184     0.7745     0.4303 N.pl3   
   5 N5             1.1731     0.0150    -0.2676 N.2     
   6 C6             3.4980     0.7919     0.1853 C.ar    
   7 C7             4.1939    -0.4007     0.0404 C.ar    
   8 C8             5.5538    -0.3803    -0.2010 C.ar    
   9 C9             6.2220     0.8262    -0.2983 C.ar    
  10 C10            5.5316     2.0159    -0.1544 C.ar    
  11 C11            4.1710     2.0022     0.0813 C.ar    
  12 C12            3.4664    -1.7162     0.1469 C.3     
  13 N13            2.0520     2.3634     2.2821 N.pl3   
  14 C14            6.3100    -1.6744    -0.3579 C.3     
  15 C15           -0.9358     1.7069     2.0888 C.1     
  16 N16           -1.7748     2.1266     2.7296 N.1     
  17 H17           -0.9354    -0.2008    -0.1114 H       
  18 H18            7.2854     0.8396    -0.4867 H       
  19 H19            6.0564     2.9568    -0.2307 H       
  20 H20            3.6324     2.9315     0.1936 H       
  21 H21            3.1989    -2.0652    -0.8505 H       
  22 H22            4.1123    -2.4507     0.6278 H       
  23 H23            2.5617    -1.5841     0.7403 H       
  24 H24            1.4914     2.9011     2.8630 H       
  25 H25            3.0177     2.4396     2.3335 H       
  26 H26            6.3125    -1.9688    -1.4074 H       
  27 H27            7.3361    -1.5393    -0.0160 H       
  28 H28            5.8283    -2.4510     0.2362 H       
@<TRIPOS>BOND
   1    1    2 1
   2    1    3 2
   3    1   15 1
   4    2    5 2
   5    2   17 1
   6    3    4 1
   7    3   13 1
   8    4    5 1
   9    4    6 1
  10    6    7 ar
  11    6   11 ar
  12    7    8 ar
  13    7   12 1
  14    8    9 ar
  15    8   14 1
  16    9   10 ar
  17    9   18 1
  18   10   11 ar
  19   10   19 1
  20   11   20 1
  21   12   21 1
  22   12   22 1
  23   12   23 1
  24   13   24 1
  25   13   25 1
  26   14   26 1
  27   14   27 1
  28   14   28 1
  29   15   16 3

#	End of record

