#	Name: ASD03331903
#	Creating user name:	WinNT
#	Creation time:	15. 06. 2019 20:40

#	Modifying user name:	WinNT
#	Modification time:	15. 06. 2019 20:40

#	Program:	/corina/corina34_cracker 3.40 0067  02.08.2006

@<TRIPOS>MOLECULE
ASD03331903
  63   65    0    0    0
SMALL
NO_CHARGES


@<TRIPOS>ATOM
   1 C1            -0.0618     2.0065     1.7855 C.2     
   2 N2            -0.1511     0.7154     2.2016 N.pl3   
   3 C3             1.0654     0.1335     1.9952 C.2     
   4 N4             1.8789     1.0317     1.4911 N.2     
   5 C5             1.2147     2.2000     1.3520 C.2     
   6 C6             1.7716     3.4583     0.8248 C.2     
   7 O7             1.0699     4.4487     0.7475 O.2     
   8 N8             3.0586     3.5117     0.4282 N.am    
   9 C9             3.6123     4.7627    -0.0960 C.3     
  10 C10            3.3004     4.8720    -1.5899 C.3     
  11 C11            4.0051     3.7413    -2.3420 C.3     
  12 C12            5.1054     4.7755     0.1077 C.2     
  13 C13            1.7895     4.7634    -1.8047 C.3     
  14 C14            3.7948     6.2207    -2.1167 C.3     
  15 O15            5.6880     3.7493     0.3879 O.2     
  16 N16            5.7933     5.9272    -0.0213 N.am    
  17 C17            7.2529     5.9266     0.1035 C.3     
  18 C18           -1.3430     0.0891     2.7801 C.3     
  19 C19           -2.5601     0.4321     1.9154 C.3     
  20 C20           -3.1672     1.7521     2.3796 C.3     
  21 N21           -2.1315     2.6674     2.8627 N.3     
  22 C22           -1.1826     3.0135     1.7940 C.3     
  23 C23           -2.7281     3.8753     3.4485 C.3     
  24 C24            1.4102    -1.2742     2.2906 C.ar    
  25 C25            2.0959    -2.0417     1.3459 C.ar    
  26 C26            1.0571    -1.8397     3.5162 C.ar    
  27 C27            1.3817    -3.1541     3.7860 C.ar    
  28 C28            2.0565    -3.9119     2.8433 C.ar    
  29 C29            2.4148    -3.3569     1.6289 C.ar    
  30 F30            2.4460    -1.5003     0.1586 F       
  31 Cl31           0.9434    -3.8587     5.3108 Cl      
  32 C32            2.4076    -5.3459     3.1455 C.3     
  33 H33            3.6183     2.7218     0.4898 H       
  34 H34            3.1664     5.6063     0.4309 H       
  35 H35            3.6529     2.7804    -1.9667 H       
  36 H36            3.7829     3.8191    -3.4063 H       
  37 H37            5.0815     3.8186    -2.1890 H       
  38 H38            1.2874     5.5689    -1.2689 H       
  39 H39            1.5673     4.8413    -2.8690 H       
  40 H40            1.4372     3.8025    -1.4294 H       
  41 H41            4.8395     6.3588    -1.8379 H       
  42 H42            3.7026     6.2425    -3.2026 H       
  43 H43            3.1946     7.0215    -1.6849 H       
  44 H44            5.3219     6.7566    -0.1969 H       
  45 H45            7.5329     5.5621     1.0919 H       
  46 H46            7.6825     5.2765    -0.6587 H       
  47 H47            7.6294     6.9408    -0.0297 H       
  48 H48           -1.2091    -0.9923     2.8082 H       
  49 H49           -1.4974     0.4646     3.7917 H       
  50 H50           -2.2511     0.5216     0.8739 H       
  51 H51           -3.3033    -0.3602     2.0051 H       
  52 H52           -3.6941     2.2162     1.5459 H       
  53 H53           -3.8755     1.5564     3.1847 H       
  54 H54           -0.7769     4.0089     1.9750 H       
  55 H55           -1.6950     2.9968     0.8321 H       
  56 H56           -3.3660     3.5955     4.2869 H       
  57 H57           -1.9368     4.5378     3.7993 H       
  58 H58           -3.3240     4.3888     2.6940 H       
  59 H59            0.5312    -1.2501     4.2527 H       
  60 H60            2.9405    -3.9533     0.8979 H       
  61 H61            1.5949    -5.9953     2.8201 H       
  62 H62            3.3219    -5.6153     2.6167 H       
  63 H63            2.5601    -5.4644     4.2183 H       
@<TRIPOS>BOND
   1    1    2 1
   2    1    5 2
   3    1   22 1
   4    2    3 1
   5    2   18 1
   6    3    4 2
   7    3   24 1
   8    4    5 1
   9    5    6 1
  10    6    7 2
  11    6    8 am
  12    8    9 1
  13    8   33 1
  14    9   10 1
  15    9   12 1
  16    9   34 1
  17   10   11 1
  18   10   13 1
  19   10   14 1
  20   11   35 1
  21   11   36 1
  22   11   37 1
  23   12   15 2
  24   12   16 am
  25   13   38 1
  26   13   39 1
  27   13   40 1
  28   14   41 1
  29   14   42 1
  30   14   43 1
  31   16   17 1
  32   16   44 1
  33   17   45 1
  34   17   46 1
  35   17   47 1
  36   18   19 1
  37   18   48 1
  38   18   49 1
  39   19   20 1
  40   19   50 1
  41   19   51 1
  42   20   21 1
  43   20   52 1
  44   20   53 1
  45   21   22 1
  46   21   23 1
  47   22   54 1
  48   22   55 1
  49   23   56 1
  50   23   57 1
  51   23   58 1
  52   24   25 ar
  53   24   26 ar
  54   25   30 1
  55   25   29 ar
  56   26   27 ar
  57   26   59 1
  58   27   28 ar
  59   27   31 1
  60   28   29 ar
  61   28   32 1
  62   29   60 1
  63   32   61 1
  64   32   62 1
  65   32   63 1

#	End of record

