#	Name: ASD03670008
#	Creating user name:	WinNT
#	Creation time:	15. 06. 2019 20:43

#	Modifying user name:	WinNT
#	Modification time:	15. 06. 2019 20:43

#	Program:	/corina/corina34_cracker 3.40 0067  02.08.2006

@<TRIPOS>MOLECULE
ASD03670008
 101  104    0    0    0
SMALL
NO_CHARGES


@<TRIPOS>ATOM
   1 C1            -0.6426     3.8139    -1.7181 C.ar    
   2 N2             1.7246     3.8106    -2.0884 N.am    
   3 O3            -0.6766     2.5479    -2.2172 O.3     
   4 C4             0.5763     4.4792    -1.6402 C.ar    
   5 O5            -3.2500     2.6999    -2.1303 O.3     
   6 C6             0.6142     5.7817    -1.1447 C.ar    
   7 O7            -5.0969     6.4163     0.3640 O.3     
   8 C8            -0.5108     6.4080    -0.6849 C.ar    
   9 O9            -2.1894     7.5074     1.8690 O.3     
  10 C10           -2.8882     6.3026    -0.1056 C.ar    
  11 O11           -4.6434     7.0854     2.5670 O.3     
  12 C12           -4.1085     5.7025    -0.2363 C.ar    
  13 O13           -4.8373     8.8028     6.8572 O.3     
  14 C14           -4.1991     4.4844    -0.9317 C.ar    
  15 O15           -0.8000     9.2674     5.8153 O.3     
  16 C16           -3.0997     3.8710    -1.4592 C.ar    
  17 O17           -1.0709     9.6649     3.6584 O.2     
  18 C18           -1.8258     4.4528    -1.2968 C.ar    
  19 O19            1.3061     8.1567     6.9731 O.3     
  20 C20           -1.7451     5.7367    -0.6922 C.ar    
  21 O21            3.2734     7.2832     3.6181 O.3     
  22 C22           -3.0754     7.5433     0.7486 C.3     
  23 O23            3.8452     3.7655    -2.6381 O.2     
  24 C24           -4.5460     7.4491     1.1964 C.3     
  25 O25           -0.4242     7.6866    -0.2271 O.3     
  26 C26           -5.2822     8.7625     0.9295 C.3     
  27 C27           -5.5478     3.8348    -1.1033 C.3     
  28 C28            2.9933     4.1881    -1.8643 C.2     
  29 C29            3.4766     5.0399    -0.7296 C.3     
  30 C30            4.4552     4.2445     0.1415 C.3     
  31 C31            3.8509     4.0355     1.5108 C.2     
  32 C32            3.6545     5.0586     2.3001 C.2     
  33 C33            2.9765     4.8924     3.6497 C.3     
  34 C34            2.3767     6.2353     4.0437 C.3     
  35 C35            2.1302     6.4273     5.5299 C.3     
  36 C36            1.0148     7.4417     5.7582 C.3     
  37 C37           -0.3910     6.8602     5.8492 C.3     
  38 C38           -1.4257     7.9691     5.6247 C.3     
  39 C39           -2.6394     7.8595     6.5343 C.3     
  40 C40           -3.8343     8.5566     5.8681 C.3     
  41 C41           -4.3976     7.6654     4.7909 C.2     
  42 C42           -4.1645     7.9233     3.5176 C.2     
  43 C43            4.2158     6.2591    -1.2946 C.3     
  44 C44            1.8611     3.8530     3.4671 C.3     
  45 C45            1.9547     5.1590     6.3381 C.3     
  46 C46           -0.6402     5.8045     4.7666 C.3     
  47 C47           -3.0306     6.4197     6.8460 C.3     
  48 C48           -0.7221    10.0698     4.7421 C.2     
  49 C49           -0.1996    11.4757     4.8887 C.3     
  50 C50           -5.6353     9.9600     6.6003 C.3     
  51 H51            1.5889     2.9913    -2.6281 H       
  52 H52           -0.5618     1.8585    -1.5489 H       
  53 H53           -3.4061     2.8072    -3.0786 H       
  54 H54            1.5410     6.3343    -1.1354 H       
  55 H55           -1.2526     7.4944     1.6294 H       
  56 H56            2.1462     8.6353     6.9560 H       
  57 H57            2.9303     8.1761     3.7599 H       
  58 H58           -2.9094     8.4411     0.1526 H       
  59 H59           -0.5633     8.3586    -0.9084 H       
  60 H60           -6.3364     8.6456     1.1808 H       
  61 H61           -4.8483     9.5531     1.5416 H       
  62 H62           -5.1869     9.0249    -0.1241 H       
  63 H63           -6.0079     4.1907    -2.0251 H       
  64 H64           -5.4263     2.7527    -1.1522 H       
  65 H65           -6.1849     4.0910    -0.2568 H       
  66 H66            2.6455     5.3692    -0.1137 H       
  67 H67            4.6369     3.2760    -0.3226 H       
  68 H68            5.3891     4.7943     0.2266 H       
  69 H69            3.6161     3.0270     1.8275 H       
  70 H70            3.9913     6.0355     1.9870 H       
  71 H71            3.7003     4.5499     4.3755 H       
  72 H72            1.4487     6.3815     3.4808 H       
  73 H73            3.0594     6.9080     5.9361 H       
  74 H74            1.0453     8.1656     4.9302 H       
  75 H75           -0.5238     6.4224     6.8367 H       
  76 H76           -1.7561     7.9074     4.5777 H       
  77 H77           -2.4216     8.3832     7.4734 H       
  78 H78           -3.5093     9.5007     5.4385 H       
  79 H79           -5.0120     6.8174     5.0559 H       
  80 H80           -3.5974     8.8027     3.2514 H       
  81 H81            3.5373     6.8364    -1.9227 H       
  82 H82            4.5695     6.8823    -0.4733 H       
  83 H83            5.0659     5.9250    -1.8894 H       
  84 H84            2.2945     2.9096     3.1350 H       
  85 H85            1.3460     3.7023     4.4158 H       
  86 H86            1.1511     4.2093     2.7207 H       
  87 H87            2.8881     4.5961     6.3380 H       
  88 H88            1.6851     5.4154     7.3626 H       
  89 H89            1.1646     4.5526     5.8954 H       
  90 H90            0.0056     4.9441     4.9426 H       
  91 H91           -1.6830     5.4889     4.8000 H       
  92 H92           -0.4204     6.2294     3.7872 H       
  93 H93           -2.2010     5.9173     7.3434 H       
  94 H94           -3.9033     6.4135     7.4990 H       
  95 H95           -3.2674     5.8986     5.9183 H       
  96 H96            0.8805    11.4790     4.7424 H       
  97 H97           -0.6692    12.1175     4.1432 H       
  98 H98           -0.4322    11.8476     5.8866 H       
  99 H99           -6.3716    10.0774     7.3954 H       
 100 H100          -4.9956    10.8418     6.5646 H       
 101 H101          -6.1473     9.8436     5.6452 H       
@<TRIPOS>BOND
   1    1    3 1
   2    1    4 ar
   3    1   18 ar
   4    2    4 1
   5    2   28 am
   6    2   51 1
   7    3   52 1
   8    4    6 ar
   9    5   16 1
  10    5   53 1
  11    6    8 ar
  12    6   54 1
  13    7   12 1
  14    7   24 1
  15    8   20 ar
  16    8   25 1
  17    9   22 1
  18    9   55 1
  19   10   12 ar
  20   10   20 ar
  21   10   22 1
  22   11   24 1
  23   11   42 1
  24   12   14 ar
  25   13   40 1
  26   13   50 1
  27   14   16 ar
  28   14   27 1
  29   15   38 1
  30   15   48 1
  31   16   18 ar
  32   17   48 2
  33   18   20 ar
  34   19   36 1
  35   19   56 1
  36   21   34 1
  37   21   57 1
  38   22   24 1
  39   22   58 1
  40   23   28 2
  41   24   26 1
  42   25   59 1
  43   26   60 1
  44   26   61 1
  45   26   62 1
  46   27   63 1
  47   27   64 1
  48   27   65 1
  49   28   29 1
  50   29   30 1
  51   29   43 1
  52   29   66 1
  53   30   31 1
  54   30   67 1
  55   30   68 1
  56   31   32 2
  57   31   69 1
  58   32   33 1
  59   32   70 1
  60   33   34 1
  61   33   44 1
  62   33   71 1
  63   34   35 1
  64   34   72 1
  65   35   36 1
  66   35   45 1
  67   35   73 1
  68   36   37 1
  69   36   74 1
  70   37   38 1
  71   37   46 1
  72   37   75 1
  73   38   39 1
  74   38   76 1
  75   39   40 1
  76   39   47 1
  77   39   77 1
  78   40   41 1
  79   40   78 1
  80   41   42 2
  81   41   79 1
  82   42   80 1
  83   43   81 1
  84   43   82 1
  85   43   83 1
  86   44   84 1
  87   44   85 1
  88   44   86 1
  89   45   87 1
  90   45   88 1
  91   45   89 1
  92   46   90 1
  93   46   91 1
  94   46   92 1
  95   47   93 1
  96   47   94 1
  97   47   95 1
  98   48   49 1
  99   49   96 1
 100   49   97 1
 101   49   98 1
 102   50   99 1
 103   50  100 1
 104   50  101 1

#	End of record

