#	Name: ASD01908376
#	Creating user name:	WinNT
#	Creation time:	15. 06. 2019 19:55

#	Modifying user name:	WinNT
#	Modification time:	15. 06. 2019 19:55

#	Program:	/corina/corina34_cracker 3.40 0067  02.08.2006

@<TRIPOS>MOLECULE
ASD01908376
  51   54    0    0    0
SMALL
NO_CHARGES


@<TRIPOS>ATOM
   1 C1            -0.0145     1.4094     0.0542 C.ar    
   2 C2             0.0002     0.0274     0.0479 C.ar    
   3 C3             1.2044    -0.6452     0.0283 C.ar    
   4 C4             2.4044     0.0560     0.0149 C.ar    
   5 C5             2.3899     1.4323     0.0211 C.ar    
   6 C6             1.1753     2.1077     0.0408 C.ar    
   7 S7             4.0585    -0.5558    -0.0112 S.o2    
   8 N8             5.0536     0.7724    -0.0194 N.am    
   9 S9             4.0306     2.0791     0.0008 S.o2    
  10 C10            6.4523     0.7873    -0.0384 C.ar    
  11 C11            7.1340     1.9973    -0.0428 C.ar    
  12 C12            7.1596    -0.4080    -0.0471 C.ar    
  13 C13            8.5400    -0.3931    -0.0653 C.ar    
  14 C14            9.2212     0.8167    -0.0751 C.ar    
  15 C15            8.5145     2.0118    -0.0611 C.ar    
  16 N16           10.6226     0.8316    -0.0932 N.am    
  17 C17           11.2776     1.7969    -0.7682 C.2     
  18 O18           10.6578     2.5951    -1.4390 O.2     
  19 C19           12.7800     1.8846    -0.6894 C.3     
  20 O20            4.1900     2.7355    -1.2494 O.2     
  21 O21            4.2253     2.7245     1.2517 O.2     
  22 O22            4.2669    -1.2083     1.2339 O.2     
  23 O23            4.2316    -1.1973    -1.2673 O.2     
  24 C24           13.2300     3.0046    -1.5026 C.3     
  25 C25           14.7671     3.1289    -1.5330 C.3     
  26 C26           15.2169     3.8064    -0.2669 C.3     
  27 C27           15.6060     2.8008     0.8335 C.3     
  28 C28           14.6341     1.6088     0.9243 C.3     
  29 C29           13.1952     2.0275     0.7892 C.3     
  30 H30           -0.9545     1.9411     0.0649 H       
  31 H31           -0.9283    -0.5242     0.0586 H       
  32 H32            1.2149    -1.7251     0.0238 H       
  33 H33            1.1628     3.1876     0.0454 H       
  34 H34            6.5843     2.9269    -0.0323 H       
  35 H35            6.6297    -1.3491    -0.0391 H       
  36 H36            9.0900    -1.3226    -0.0717 H       
  37 H37            9.0445     2.9527    -0.0687 H       
  38 H38           11.1210     0.1472     0.3801 H       
  39 H39           13.2082     0.9647    -1.0876 H       
  40 H40           12.8666     2.8696    -2.5214 H       
  41 H41           12.8093     3.9255    -1.0989 H       
  42 H42           15.2135     2.1365    -1.5958 H       
  43 H43           15.0693     3.7247    -2.3943 H       
  44 H44           16.0786     4.4354    -0.4905 H       
  45 H45           14.4083     4.4374     0.1019 H       
  46 H46           16.6073     2.4230     0.6264 H       
  47 H47           15.6192     3.3175     1.7932 H       
  48 H48           14.8710     0.8995     0.1313 H       
  49 H49           14.7691     1.1162     1.8872 H       
  50 H50           13.0851     3.0659     1.1017 H       
  51 H51           12.5677     1.3872     1.4092 H       
@<TRIPOS>BOND
   1    1    2 ar
   2    1    6 ar
   3    1   30 1
   4    2    3 ar
   5    2   31 1
   6    3    4 ar
   7    3   32 1
   8    4    5 ar
   9    4    7 1
  10    5    6 ar
  11    5    9 1
  12    6   33 1
  13    7    8 am
  14    7   22 2
  15    7   23 2
  16    8    9 am
  17    8   10 1
  18    9   20 2
  19    9   21 2
  20   10   11 ar
  21   10   12 ar
  22   11   15 ar
  23   11   34 1
  24   12   13 ar
  25   12   35 1
  26   13   14 ar
  27   13   36 1
  28   14   15 ar
  29   14   16 1
  30   15   37 1
  31   16   17 am
  32   16   38 1
  33   17   18 2
  34   17   19 1
  35   19   24 1
  36   19   29 1
  37   19   39 1
  38   24   25 1
  39   24   40 1
  40   24   41 1
  41   25   26 1
  42   25   42 1
  43   25   43 1
  44   26   27 1
  45   26   44 1
  46   26   45 1
  47   27   28 1
  48   27   46 1
  49   27   47 1
  50   28   29 1
  51   28   48 1
  52   28   49 1
  53   29   50 1
  54   29   51 1

#	End of record

