#	Name: ASD09116425
#	Creating user name:	WinNT
#	Creation time:	15. 06. 2019 21:21

#	Modifying user name:	WinNT
#	Modification time:	15. 06. 2019 21:21

#	Program:	/corina/corina34_cracker 3.40 0067  02.08.2006

@<TRIPOS>MOLECULE
ASD09116425
  69   75    0    0    0
SMALL
NO_CHARGES


@<TRIPOS>ATOM
   1 N1            -0.1009     2.7717    -0.4221 N.2     
   2 N2            -0.3863     1.4142    -0.2042 N.pl3   
   3 C3             1.2024     2.9038    -0.3581 C.2     
   4 N4             1.7505     1.7079    -0.1127 N.2     
   5 C5             0.8046     0.7983    -0.0172 C.2     
   6 N6             0.9935    -0.5481     0.2304 N.pl3   
   7 C7            -1.6485     0.8179    -0.1838 C.ar    
   8 N8             1.9043     4.0985    -0.5201 N.pl3   
   9 C9             3.2863     4.1301    -0.3165 C.ar    
  10 C10            4.0716     5.0396    -1.0134 C.ar    
  11 C11            3.8769     3.2552     0.5881 C.ar    
  12 C12            5.2449     3.2950     0.7815 C.ar    
  13 C13            6.0181     4.1909     0.0881 C.ar    
  14 C14            5.4382     5.0697    -0.8105 C.ar    
  15 N15           -1.7766    -0.4712    -0.4602 N.ar    
  16 N16           -2.9162    -1.0661    -0.4649 N.ar    
  17 C17           -4.0378    -0.4188    -0.1926 C.ar    
  18 C18           -3.9977     0.9403     0.1317 C.ar    
  19 C19           -2.7760     1.5796     0.1337 C.ar    
  20 C20           -5.3576    -1.0890    -0.2503 C.ar    
  21 C21           -6.3916    -0.4823    -0.9651 C.ar    
  22 C22           -6.1249     0.8019    -1.7014 C.3     
  23 C23           -6.0802     1.9921    -0.7469 C.3     
  24 C24           -5.2649     1.6560     0.4989 C.3     
  25 C25           -5.5763    -2.3004     0.3963 C.ar    
  26 C26           -6.8252    -2.8884     0.3425 C.ar    
  27 C27           -7.8528    -2.2736    -0.3495 C.ar    
  28 C28           -7.6369    -1.0718    -1.0015 C.ar    
  29 C29            5.8861     2.3393     1.7663 C.3     
  30 C30            6.3544     3.1398     2.9841 C.3     
  31 C31            7.7357     3.7197     2.7527 C.3     
  32 C32            7.7911     4.8051     1.6959 C.3     
  33 C33            7.5169     4.2289     0.3049 C.3     
  34 N34            8.2249     4.2782     4.0203 N.3     
  35 C35            8.4936     3.2092     5.0001 C.3     
  36 C36            9.7662     3.9701     5.3979 C.3     
  37 C37            9.6791     4.5174     3.9663 C.3     
  38 H38            1.8901    -0.8979     0.3510 H       
  39 H39            0.2294    -1.1433     0.2836 H       
  40 H40            1.4329     4.9074    -0.7742 H       
  41 H41            3.6143     5.7227    -1.7138 H       
  42 H42            3.2708     2.5492     1.1364 H       
  43 H43            6.0517     5.7730    -1.3540 H       
  44 H44           -2.6946     2.6316     0.3640 H       
  45 H45           -5.1690     0.7241    -2.2193 H       
  46 H46           -6.9147     0.9628    -2.4352 H       
  47 H47           -5.6253     2.8425    -1.2548 H       
  48 H48           -7.0963     2.2533    -0.4512 H       
  49 H49           -5.8588     1.0196     1.1550 H       
  50 H50           -5.0165     2.5781     1.0242 H       
  51 H51           -4.7737    -2.7794     0.9375 H       
  52 H52           -6.9994    -3.8303     0.8415 H       
  53 H53           -8.8295    -2.7336    -0.3810 H       
  54 H54           -8.4439    -0.5966    -1.5393 H       
  55 H55            5.1575     1.5910     2.0780 H       
  56 H56            6.7407     1.8503     1.2988 H       
  57 H57            5.6516     3.9519     3.1706 H       
  58 H58            6.3822     2.4844     3.8545 H       
  59 H59            8.4042     2.9121     2.4542 H       
  60 H60            7.0429     5.5645     1.9228 H       
  61 H61            8.7799     5.2637     1.7050 H       
  62 H62            7.9220     3.2191     0.2403 H       
  63 H63            7.9805     4.8619    -0.4517 H       
  64 H64            7.7528     3.1552     5.7979 H       
  65 H65            8.6922     2.2403     4.5421 H       
  66 H66            9.6133     4.7212     6.1729 H       
  67 H67           10.6301     3.3307     5.5794 H       
  68 H68           10.1942     3.8976     3.2323 H       
  69 H69            9.9431     5.5721     3.8878 H       
@<TRIPOS>BOND
   1    1    2 1
   2    1    3 2
   3    2    7 1
   4    2    5 1
   5    3    4 1
   6    3    8 1
   7    4    5 2
   8    5    6 1
   9    6   38 1
  10    6   39 1
  11    7   15 ar
  12    7   19 ar
  13    8    9 1
  14    8   40 1
  15    9   10 ar
  16    9   11 ar
  17   10   14 ar
  18   10   41 1
  19   11   12 ar
  20   11   42 1
  21   12   13 ar
  22   12   29 1
  23   13   14 ar
  24   13   33 1
  25   14   43 1
  26   15   16 ar
  27   16   17 ar
  28   17   18 ar
  29   17   20 1
  30   18   19 ar
  31   18   24 1
  32   19   44 1
  33   20   21 ar
  34   20   25 ar
  35   21   22 1
  36   21   28 ar
  37   22   23 1
  38   22   45 1
  39   22   46 1
  40   23   24 1
  41   23   47 1
  42   23   48 1
  43   24   49 1
  44   24   50 1
  45   25   26 ar
  46   25   51 1
  47   26   27 ar
  48   26   52 1
  49   27   28 ar
  50   27   53 1
  51   28   54 1
  52   29   30 1
  53   29   55 1
  54   29   56 1
  55   30   31 1
  56   30   57 1
  57   30   58 1
  58   31   32 1
  59   31   34 1
  60   31   59 1
  61   32   33 1
  62   32   60 1
  63   32   61 1
  64   33   62 1
  65   33   63 1
  66   34   35 1
  67   34   37 1
  68   35   36 1
  69   35   64 1
  70   35   65 1
  71   36   37 1
  72   36   66 1
  73   36   67 1
  74   37   68 1
  75   37   69 1

#	End of record

