#	Name: ASD01884283
#	Creating user name:	WinNT
#	Creation time:	15. 06. 2019 19:47

#	Modifying user name:	WinNT
#	Modification time:	15. 06. 2019 19:47

#	Program:	/corina/corina34_cracker 3.40 0067  02.08.2006

@<TRIPOS>MOLECULE
ASD01884283
  36   39    0    0    0
SMALL
NO_CHARGES


@<TRIPOS>ATOM
   1 C1             0.0956     1.2315     0.1052 C.ar    
   2 C2             0.3017    -0.0924     0.4706 C.ar    
   3 C3            -0.7554    -0.9652     0.5774 C.ar    
   4 C4            -2.0675    -0.5403     0.3200 C.ar    
   5 C5            -2.2558     0.7934    -0.0453 C.ar    
   6 C6            -1.1938     1.6732    -0.1478 C.ar    
   7 N7            -3.2321    -1.2874     0.3818 N.am    
   8 C8            -4.3925    -0.6888     0.0967 C.2     
   9 S9            -3.9960     0.9932    -0.2927 S.3     
  10 O10           -5.4985    -1.1969     0.1028 O.2     
  11 C11           -3.1928    -2.7045     0.7515 C.3     
  12 C12           -3.3350    -2.8399     2.2688 C.3     
  13 C13           -3.4353    -4.2534     2.8456 C.3     
  14 C14           -2.1555    -3.4375     3.0384 C.3     
  15 F15           -1.0294    -3.8184     2.3008 F       
  16 F16           -1.8971    -2.9338     4.3177 F       
  17 O17            1.1472     2.0871     0.0023 O.3     
  18 C18            1.9429     1.9888    -1.0904 C.ar    
  19 C19            3.0883     2.7735    -1.1772 C.ar    
  20 N20            1.6216     1.1432    -2.0576 N.ar    
  21 C21            2.3620     1.0111    -3.1381 C.ar    
  22 C22            3.5240     1.7677    -3.3007 C.ar    
  23 C23            3.8951     2.6689    -2.2920 C.ar    
  24 C24            4.3275     1.6220    -4.4770 C.1     
  25 N25            4.9650     1.5064    -5.4102 N.1     
  26 H26            1.3038    -0.4405     0.6728 H       
  27 H27           -0.5733    -1.9909     0.8626 H       
  28 H28           -1.3677     2.7003    -0.4326 H       
  29 H29           -4.0119    -3.2307     0.2613 H       
  30 H30           -2.2430    -3.1361     0.4356 H       
  31 H31           -3.9101    -2.0543     2.7590 H       
  32 H32           -4.0760    -4.3977     3.7155 H       
  33 H33           -3.3999    -5.0869     2.1441 H       
  34 H34            3.3432     3.4573    -0.3810 H       
  35 H35            2.0680     0.3106    -3.9057 H       
  36 H36            4.7879     3.2692    -2.3873 H       
@<TRIPOS>BOND
   1    1    2 ar
   2    1   17 1
   3    1    6 ar
   4    2    3 ar
   5    2   26 1
   6    3    4 ar
   7    3   27 1
   8    4    5 ar
   9    4    7 1
  10    5    6 ar
  11    5    9 1
  12    6   28 1
  13    7    8 am
  14    7   11 1
  15    8    9 1
  16    8   10 2
  17   11   12 1
  18   11   29 1
  19   11   30 1
  20   12   13 1
  21   12   14 1
  22   12   31 1
  23   13   14 1
  24   13   32 1
  25   13   33 1
  26   14   15 1
  27   14   16 1
  28   17   18 1
  29   18   19 ar
  30   18   20 ar
  31   19   23 ar
  32   19   34 1
  33   20   21 ar
  34   21   22 ar
  35   21   35 1
  36   22   23 ar
  37   22   24 1
  38   23   36 1
  39   24   25 3

#	End of record

