#	Name: ASD01914154
#	Creating user name:	WinNT
#	Creation time:	15. 06. 2019 20:02

#	Modifying user name:	WinNT
#	Modification time:	15. 06. 2019 20:02

#	Program:	/corina/corina34_cracker 3.40 0067  02.08.2006

@<TRIPOS>MOLECULE
ASD01914154
  51   55    0    0    0
SMALL
NO_CHARGES


@<TRIPOS>ATOM
   1 C1            -0.8287     1.6249    -0.1868 C.2     
   2 C2            -0.6697     0.1650    -0.1787 C.2     
   3 N3            -1.6382    -0.7371    -0.1143 N.2     
   4 C4            -1.0213    -1.9277    -0.1348 C.2     
   5 N5             0.2588    -1.7086    -0.2086 N.2     
   6 O6             0.4861    -0.5177    -0.2410 O.3     
   7 C7            -1.6907    -3.2769    -0.0819 C.3     
   8 C8            -1.3421    -4.0699    -1.3434 C.3     
   9 C9            -2.0478    -5.4274    -1.3060 C.3     
  10 C10           -1.5608    -6.2182    -0.0878 C.3     
  11 N11           -1.7600    -5.4011     1.1170 N.am    
  12 C12           -1.1996    -4.0433     1.1503 C.3     
  13 C13           -0.0741    -6.5423    -0.2476 C.3     
  14 C14           -2.4438    -5.8878     2.1715 C.2     
  15 C15           -2.5253    -5.1050     3.4267 C.ar    
  16 O16           -2.9934    -6.9687     2.0927 O.2     
  17 C17            0.1866     2.5535    -0.2541 C.2     
  18 C18           -0.4111     3.8204    -0.2355 C.2     
  19 C19           -1.7513     3.6453    -0.1588 C.2     
  20 N20           -2.0182     2.3125    -0.1345 N.pl3   
  21 Cl21           0.4191     5.3437    -0.2989 Cl      
  22 C22           -3.7194    -5.0349     4.1530 C.ar    
  23 C23           -3.7569    -4.2954     5.3192 C.ar    
  24 N24           -2.6889    -3.6584     5.7541 N.ar    
  25 C25           -1.5356    -3.6953     5.1004 C.ar    
  26 C26           -1.4116    -4.4229     3.9190 C.ar    
  27 C27           -0.3645    -2.9586     5.6354 C.2     
  28 C28            0.8902    -2.8209     5.0090 C.2     
  29 N29            1.6562    -2.1055     5.7888 N.2     
  30 N30            0.9281    -1.7609     6.9339 N.pl3   
  31 C31           -0.3077    -2.2853     6.8218 C.2     
  32 H32           -2.7710    -3.1449    -0.0221 H       
  33 H33           -1.6686    -3.5150    -2.2230 H       
  34 H34           -0.2638    -4.2224    -1.3901 H       
  35 H35           -3.1248    -5.2756    -1.2344 H       
  36 H36           -1.8178    -5.9822    -2.2156 H       
  37 H37           -2.1312    -7.1430    -0.0005 H       
  38 H38           -0.1110    -4.0969     1.1374 H       
  39 H39           -1.5317    -3.5330     2.0544 H       
  40 H40            0.4933    -5.6152    -0.3281 H       
  41 H41            0.2705    -7.1049     0.6201 H       
  42 H42            0.0732    -7.1378    -1.1486 H       
  43 H43            1.2446     2.3442    -0.3101 H       
  44 H44           -2.4876     4.4346    -0.1269 H       
  45 H45           -2.9007     1.9132    -0.0823 H       
  46 H46           -4.6014    -5.5525     3.8057 H       
  47 H47           -4.6762    -4.2383     5.8832 H       
  48 H48           -0.4714    -4.4520     3.3884 H       
  49 H49            1.1699    -3.2349     4.0515 H       
  50 H50            1.2558    -1.2319     7.6780 H       
  51 H51           -1.1066    -2.1954     7.5430 H       
@<TRIPOS>BOND
   1    1    2 1
   2    1   17 2
   3    1   20 1
   4    2    3 2
   5    2    6 1
   6    3    4 1
   7    4    5 2
   8    4    7 1
   9    5    6 1
  10    7    8 1
  11    7   12 1
  12    7   32 1
  13    8    9 1
  14    8   33 1
  15    8   34 1
  16    9   10 1
  17    9   35 1
  18    9   36 1
  19   10   11 1
  20   10   13 1
  21   10   37 1
  22   11   12 1
  23   11   14 am
  24   12   38 1
  25   12   39 1
  26   13   40 1
  27   13   41 1
  28   13   42 1
  29   14   15 1
  30   14   16 2
  31   15   22 ar
  32   15   26 ar
  33   17   18 1
  34   17   43 1
  35   18   19 2
  36   18   21 1
  37   19   20 1
  38   19   44 1
  39   20   45 1
  40   22   23 ar
  41   22   46 1
  42   23   24 ar
  43   23   47 1
  44   24   25 ar
  45   25   26 ar
  46   25   27 1
  47   26   48 1
  48   27   28 1
  49   27   31 2
  50   28   29 2
  51   28   49 1
  52   29   30 1
  53   30   31 1
  54   30   50 1
  55   31   51 1

#	End of record

