#	Name: ASD01812212
#	Creating user name:	WinNT
#	Creation time:	15. 06. 2019 19:28

#	Modifying user name:	WinNT
#	Modification time:	15. 06. 2019 19:28

#	Program:	/corina/corina34_cracker 3.40 0067  02.08.2006

@<TRIPOS>MOLECULE
ASD01812212
  56   59    0    0    0
SMALL
NO_CHARGES


@<TRIPOS>ATOM
   1 C1             0.3662     0.6584     2.3532 C.ar    
   2 C2             0.5075    -0.7143     2.1576 C.ar    
   3 C3             1.5863    -1.1978     1.4731 C.ar    
   4 C4             2.5305    -0.2765     0.9828 C.ar    
   5 C5             2.3254     1.1072     1.2174 C.ar    
   6 N6             1.2469     1.5138     1.8954 N.ar    
   7 C7             3.6644    -0.7031     0.2705 C.ar    
   8 C8             4.5613     0.2048    -0.1921 C.ar    
   9 C9             4.3742     1.5824     0.0311 C.ar    
  10 C10            3.2638     2.0260     0.7302 C.ar    
  11 C11            3.8855    -2.1726     0.0201 C.3     
  12 C12            5.1796     2.7593    -0.3552 C.2     
  13 N13            4.5968     3.8878     0.0844 N.am    
  14 C14            3.3627     3.5294     0.7928 C.3     
  15 O15            6.2205     2.7135    -0.9811 O.2     
  16 C16            5.1078     5.2469    -0.1104 C.3     
  17 C17            5.2127     5.5426    -1.6079 C.3     
  18 C18            5.7465     6.9619    -1.8113 C.3     
  19 C19            7.1299     7.0835    -1.1694 C.3     
  20 C20            7.0251     6.7878     0.3281 C.3     
  21 C21            6.4913     5.3684     0.5316 C.3     
  22 N22            3.4477    -2.5086    -1.3413 N.3     
  23 C23            3.9546    -3.8263    -1.7471 C.3     
  24 C24            1.9841    -2.4503    -1.4531 C.3     
  25 O25            3.9206     5.4291    -2.2074 O.3     
  26 C26            3.8193    -3.9799    -3.2633 C.3     
  27 C27            1.5566    -1.0266    -1.8154 C.3     
  28 H28           -0.4940     1.0270     2.8922 H       
  29 H29           -0.2349    -1.3951     2.5471 H       
  30 H30            1.7114    -2.2584     1.3129 H       
  31 H31            5.4295    -0.1338    -0.7380 H       
  32 H32            4.9450    -2.4043     0.1287 H       
  33 H33            3.3106    -2.7544     0.7406 H       
  34 H34            2.5025     3.9825     0.2999 H       
  35 H35            3.4170     3.8586     1.8305 H       
  36 H36            4.4278     5.9609     0.3542 H       
  37 H37            5.8928     4.8286    -2.0724 H       
  38 H38            5.8212     7.1726    -2.8782 H       
  39 H39            5.0664     7.6759    -1.3468 H       
  40 H40            7.8100     6.3695    -1.6339 H       
  41 H41            7.5102     8.0946    -1.3143 H       
  42 H42            8.0107     6.8744     0.7855 H       
  43 H43            6.3450     7.5018     0.7927 H       
  44 H44            6.4166     5.1578     1.5984 H       
  45 H45            7.1714     4.6544     0.0670 H       
  46 H46            5.0038    -3.9145    -1.4652 H       
  47 H47            3.3780    -4.6063    -1.2499 H       
  48 H48            1.6514    -3.1384    -2.2302 H       
  49 H49            1.5354    -2.7332    -0.5009 H       
  50 H50            3.9116     5.6037    -3.1585 H       
  51 H51            4.1581    -4.9727    -3.5596 H       
  52 H52            2.7754    -3.8518    -3.5498 H       
  53 H53            4.4279    -3.2248    -3.7608 H       
  54 H54            2.0450    -0.7253    -2.7421 H       
  55 H55            0.4751    -0.9945    -1.9476 H       
  56 H56            1.8452    -0.3457    -1.0146 H       
@<TRIPOS>BOND
   1    1    2 ar
   2    1    6 ar
   3    1   28 1
   4    2    3 ar
   5    2   29 1
   6    3    4 ar
   7    3   30 1
   8    4    5 ar
   9    4    7 ar
  10    5    6 ar
  11    5   10 ar
  12    7    8 ar
  13    7   11 1
  14    8    9 ar
  15    8   31 1
  16    9   10 ar
  17    9   12 1
  18   10   14 1
  19   11   22 1
  20   11   32 1
  21   11   33 1
  22   12   13 am
  23   12   15 2
  24   13   14 1
  25   13   16 1
  26   14   34 1
  27   14   35 1
  28   16   17 1
  29   16   21 1
  30   16   36 1
  31   17   18 1
  32   17   25 1
  33   17   37 1
  34   18   19 1
  35   18   38 1
  36   18   39 1
  37   19   20 1
  38   19   40 1
  39   19   41 1
  40   20   21 1
  41   20   42 1
  42   20   43 1
  43   21   44 1
  44   21   45 1
  45   22   23 1
  46   22   24 1
  47   23   26 1
  48   23   46 1
  49   23   47 1
  50   24   27 1
  51   24   48 1
  52   24   49 1
  53   25   50 1
  54   26   51 1
  55   26   52 1
  56   26   53 1
  57   27   54 1
  58   27   55 1
  59   27   56 1

#	End of record

