#	Name: ASD08150663
#	Creating user name:	WinNT
#	Creation time:	15. 06. 2019 21:16

#	Modifying user name:	WinNT
#	Modification time:	15. 06. 2019 21:16

#	Program:	/corina/corina34_cracker 3.40 0067  02.08.2006

@<TRIPOS>MOLECULE
ASD08150663
  65   71    0    0    0
SMALL
NO_CHARGES


@<TRIPOS>ATOM
   1 N1             2.5338     1.5750     8.2390 N.am    
   2 C2             1.7983     2.3745     9.0357 C.2     
   3 C3             2.4130     3.1971    10.0013 C.2     
   4 C4             3.7632     3.1941    10.1416 C.2     
   5 C5             4.5399     2.3538     9.3053 C.ar    
   6 C6             5.9434     2.3122     9.4097 C.ar    
   7 N7             6.6575     1.5361     8.6369 N.ar    
   8 C8             6.1033     0.7413     7.7089 C.ar    
   9 C9             4.6977     0.7182     7.5341 C.ar    
  10 C10            3.8964     1.5472     8.3540 C.ar    
  11 C11            4.1301    -0.1128     6.5635 C.ar    
  12 C12            4.9519    -0.9074     5.7805 C.ar    
  13 C13            6.3421    -0.8795     5.9595 C.ar    
  14 C14            6.9089    -0.0765     6.8994 C.ar    
  15 O15            0.5846     2.3870     8.9197 O.2     
  16 C16            4.3582    -1.7918     4.7486 C.ar    
  17 C17            1.8984     0.7627     7.2905 C.ar    
  18 C18            1.3495    -0.4543     7.6745 C.ar    
  19 C19            0.7238    -1.2545     6.7405 C.ar    
  20 C20            0.6427    -0.8429     5.4159 C.ar    
  21 C21            1.1916     0.3739     5.0320 C.ar    
  22 C22            1.8126     1.1768     5.9678 C.ar    
  23 N23            0.0092    -1.6537     4.4694 N.3     
  24 C24            3.0997    -2.3777     4.9586 C.ar    
  25 N25            2.5514    -3.1618     4.0654 N.ar    
  26 C26            3.1616    -3.4439     2.9094 C.ar    
  27 C27            4.4351    -2.8905     2.6232 C.ar    
  28 C28            5.0397    -2.0417     3.5662 C.ar    
  29 C29           -1.3719    -1.2095     4.2355 C.3     
  30 C30           -2.0030    -2.0704     3.1386 C.3     
  31 N31           -1.9687    -3.4817     3.5468 N.3     
  32 C32           -0.5876    -3.9259     3.7808 C.3     
  33 C33            0.0435    -3.0650     4.8776 C.3     
  34 C34            2.5569    -4.2889     1.9625 C.ar    
  35 C35            3.1972    -4.5620     0.7930 C.ar    
  36 C36            4.4492    -4.0172     0.5139 C.ar    
  37 C37            5.0670    -3.1948     1.4055 C.ar    
  38 C38            1.1043     0.8203     3.5953 C.3     
  39 F39            2.3198     1.3969     3.2114 F       
  40 F40            0.8336    -0.2836     2.7797 F       
  41 F41            0.0784     1.7620     3.4611 F       
  42 H42            1.8079     3.8321    10.6314 H       
  43 H43            4.2387     3.8232    10.8795 H       
  44 H44            6.4393     2.9330    10.1413 H       
  45 H45            3.0592    -0.1355     6.4254 H       
  46 H46            6.9714    -1.5041     5.3428 H       
  47 H47            7.9817    -0.0673     7.0236 H       
  48 H48            1.4129    -0.7743     8.7041 H       
  49 H49            0.2973    -2.2008     7.0390 H       
  50 H50            2.2355     2.1249     5.6703 H       
  51 H51            2.5716    -2.1769     5.8790 H       
  52 H52            6.0091    -1.6036     3.3796 H       
  53 H53           -1.9478    -1.3126     5.1552 H       
  54 H54           -1.3700    -0.1654     3.9223 H       
  55 H55           -3.0368    -1.7617     2.9837 H       
  56 H56           -1.4432    -1.9462     2.2117 H       
  57 H57           -2.5414    -3.6361     4.3631 H       
  58 H58           -0.5895    -4.9700     4.0939 H       
  59 H59           -0.0117    -3.8229     2.8611 H       
  60 H60            1.0773    -3.3738     5.0326 H       
  61 H61           -0.5163    -3.1892     5.8046 H       
  62 H62            1.5872    -4.7203     2.1626 H       
  63 H63            2.7275    -5.2118     0.0695 H       
  64 H64            4.9356    -4.2509    -0.4216 H       
  65 H65            6.0372    -2.7783     1.1782 H       
@<TRIPOS>BOND
   1    1    2 am
   2    1   10 1
   3    1   17 1
   4    2    3 1
   5    2   15 2
   6    3    4 2
   7    3   42 1
   8    4    5 1
   9    4   43 1
  10    5    6 ar
  11    5   10 ar
  12    6    7 ar
  13    6   44 1
  14    7    8 ar
  15    8    9 ar
  16    8   14 ar
  17    9   10 ar
  18    9   11 ar
  19   11   12 ar
  20   11   45 1
  21   12   13 ar
  22   12   16 1
  23   13   14 ar
  24   13   46 1
  25   14   47 1
  26   16   24 ar
  27   16   28 ar
  28   17   18 ar
  29   17   22 ar
  30   18   19 ar
  31   18   48 1
  32   19   20 ar
  33   19   49 1
  34   20   21 ar
  35   20   23 1
  36   21   22 ar
  37   21   38 1
  38   22   50 1
  39   23   29 1
  40   23   33 1
  41   24   25 ar
  42   24   51 1
  43   25   26 ar
  44   26   27 ar
  45   26   34 ar
  46   27   28 ar
  47   27   37 ar
  48   28   52 1
  49   29   30 1
  50   29   53 1
  51   29   54 1
  52   30   31 1
  53   30   55 1
  54   30   56 1
  55   31   32 1
  56   31   57 1
  57   32   33 1
  58   32   58 1
  59   32   59 1
  60   33   60 1
  61   33   61 1
  62   34   35 ar
  63   34   62 1
  64   35   36 ar
  65   35   63 1
  66   36   37 ar
  67   36   64 1
  68   37   65 1
  69   38   39 1
  70   38   40 1
  71   38   41 1

#	End of record

