#	Name: ASD00170718
#	Creating user name:	WinNT
#	Creation time:	15. 06. 2019 18:32

#	Modifying user name:	WinNT
#	Modification time:	15. 06. 2019 18:32

#	Program:	/corina/corina34_cracker 3.40 0067  02.08.2006

@<TRIPOS>MOLECULE
ASD00170718
  37   39    0    0    0
SMALL
NO_CHARGES


@<TRIPOS>ATOM
   1 C1            -0.0144     1.2093     0.0087 C.2     
   2 O2             0.0021    -0.0041     0.0020 O.2     
   3 C3             1.2437     1.9587     0.0007 C.ar    
   4 C4             1.2310     3.3715     0.0084 C.ar    
   5 C5             2.4384     4.0691     0.0006 C.ar    
   6 C6             3.6336     3.3800    -0.0146 C.ar    
   7 C7             3.6473     1.9909    -0.0222 C.ar    
   8 C8             2.4689     1.2807    -0.0088 C.ar    
   9 Cl9            5.1324     4.2559    -0.0248 Cl      
  10 C10           -0.9304     4.0465     1.0747 C.2     
  11 C11           -0.0503     4.1033     0.0241 C.2     
  12 C12           -0.4742     4.9141    -1.0266 C.2     
  13 C13           -1.6649     5.5024    -0.8405 C.2     
  14 S14           -2.3317     5.0475     0.7204 S.3     
  15 C15           -2.3221     6.4041    -1.8094 C.ar    
  16 C16           -3.5664     6.9637    -1.5124 C.ar    
  17 C17           -4.1758     7.8049    -2.4190 C.ar    
  18 C18           -3.5543     8.0954    -3.6260 C.ar    
  19 C19           -2.3170     7.5411    -3.9253 C.ar    
  20 C20           -1.6979     6.7035    -3.0220 C.ar    
  21 O21           -4.1589     8.9244    -4.5174 O.3     
  22 C22           -3.4642     9.1808    -5.7395 C.3     
  23 N23           -0.7463     3.3095     2.2335 N.pl3   
  24 H24           -0.9569     1.7366     0.0160 H       
  25 H25            2.4379     5.1491     0.0060 H       
  26 H26            4.5902     1.4644    -0.0340 H       
  27 H27            2.4888     0.2009    -0.0103 H       
  28 H28            0.1116     5.0582    -1.9224 H       
  29 H29           -4.0509     6.7377    -0.5740 H       
  30 H30           -5.1383     8.2381    -2.1901 H       
  31 H31           -1.8371     7.7694    -4.8655 H       
  32 H32           -0.7334     6.2763    -3.2537 H       
  33 H33           -3.3072     8.2427    -6.2719 H       
  34 H34           -4.0552     9.8555    -6.3588 H       
  35 H35           -2.5002     9.6397    -5.5201 H       
  36 H36            0.0571     2.7781     2.3478 H       
  37 H37           -1.4209     3.3248     2.9304 H       
@<TRIPOS>BOND
   1    1    2 2
   2    1    3 1
   3    1   24 1
   4    3    4 ar
   5    3    8 ar
   6    4    5 ar
   7    4   11 1
   8    5    6 ar
   9    5   25 1
  10    6    7 ar
  11    6    9 1
  12    7    8 ar
  13    7   26 1
  14    8   27 1
  15   10   11 2
  16   10   14 1
  17   10   23 1
  18   11   12 1
  19   12   13 2
  20   12   28 1
  21   13   14 1
  22   13   15 1
  23   15   16 ar
  24   15   20 ar
  25   16   17 ar
  26   16   29 1
  27   17   18 ar
  28   17   30 1
  29   18   19 ar
  30   18   21 1
  31   19   20 ar
  32   19   31 1
  33   20   32 1
  34   21   22 1
  35   22   33 1
  36   22   34 1
  37   22   35 1
  38   23   36 1
  39   23   37 1

#	End of record

