#	Name: ASD01150548
#	Creating user name:	WinNT
#	Creation time:	15. 06. 2019 19:04

#	Modifying user name:	WinNT
#	Modification time:	15. 06. 2019 19:04

#	Program:	/corina/corina34_cracker 3.40 0067  02.08.2006

@<TRIPOS>MOLECULE
ASD01150548
  48   50    0    0    0
SMALL
NO_CHARGES


@<TRIPOS>ATOM
   1 C1             0.4933     1.3919    -0.9465 C.ar    
   2 C2             0.4639     0.0109    -0.9224 C.ar    
   3 C3             1.9479     0.0102     0.9677 C.ar    
   4 C4             1.9789     1.3967     0.9445 C.ar    
   5 C5             1.2508     2.0887    -0.0133 C.ar    
   6 N6             1.2801     3.4880    -0.0393 N.am    
   7 C7             0.1264     4.1736    -0.1219 C.2     
   8 N8             0.1176     5.5193    -0.1491 N.am    
   9 C9             1.2789     6.2039    -0.0933 C.2     
  10 C10            2.5443     5.4601    -0.0029 C.2     
  11 N11            2.5098     4.1538     0.0267 N.2     
  12 O12            1.2793     7.4207    -0.1178 O.2     
  13 C13           -1.1539     6.2413    -0.2399 C.3     
  14 O14           -0.9269     3.5677    -0.1732 O.2     
  15 C15           -1.6831     6.5212     1.1681 C.3     
  16 O16            3.7301     6.1204     0.0549 O.3     
  17 C17            4.9130     5.3233     0.1414 C.3     
  18 C18            1.1883    -0.6824     0.0308 C.ar    
  19 N19            2.6816    -0.6914     1.9324 N.am    
  20 C20            2.9446    -0.1216     3.1251 C.2     
  21 C21            3.6402    -0.9140     4.2018 C.3     
  22 O22            2.6215     1.0290     3.3319 O.2     
  23 C23           -2.9911     7.2638     1.0747 C.ar    
  24 F24            1.1575    -2.0329     0.0519 F       
  25 C25           -4.1812     6.5630     1.0170 C.ar    
  26 C26           -5.3810     7.2442     0.9313 C.ar    
  27 C27           -5.3907     8.6262     0.9037 C.ar    
  28 C28           -4.2006     9.3271     0.9623 C.ar    
  29 C29           -3.0011     8.6460     1.0524 C.ar    
  30 H30           -0.0696     1.9303    -1.6946 H       
  31 H31           -0.1260    -0.5285    -1.6487 H       
  32 H32            2.5683     1.9368     1.6707 H       
  33 H33           -0.9996     7.1844    -0.7642 H       
  34 H34           -1.8772     5.6359    -0.7863 H       
  35 H35           -1.8374     5.5781     1.6924 H       
  36 H36           -0.9598     7.1265     1.7145 H       
  37 H37            5.7870     5.9733     0.1807 H       
  38 H38            4.8740     4.7119     1.0429 H       
  39 H39            4.9801     4.6767    -0.7335 H       
  40 H40            3.0005    -1.5875     1.7421 H       
  41 H41            4.7185    -0.7858     4.1080 H       
  42 H42            3.3159    -0.5600     5.1804 H       
  43 H43            3.3892    -1.9694     4.0957 H       
  44 H44           -4.1737     5.4832     1.0386 H       
  45 H45           -6.3108     6.6966     0.8855 H       
  46 H46           -6.3280     9.1584     0.8360 H       
  47 H47           -4.2082    10.4068     0.9404 H       
  48 H48           -2.0713     9.1935     1.0982 H       
@<TRIPOS>BOND
   1    1    2 ar
   2    1    5 ar
   3    1   30 1
   4    2   18 ar
   5    2   31 1
   6    3    4 ar
   7    3   19 1
   8    3   18 ar
   9    4    5 ar
  10    4   32 1
  11    5    6 1
  12    6    7 am
  13    6   11 1
  14    7    8 am
  15    7   14 2
  16    8    9 am
  17    8   13 1
  18    9   10 1
  19    9   12 2
  20   10   11 2
  21   10   16 1
  22   13   15 1
  23   13   33 1
  24   13   34 1
  25   15   23 1
  26   15   35 1
  27   15   36 1
  28   16   17 1
  29   17   37 1
  30   17   38 1
  31   17   39 1
  32   18   24 1
  33   19   20 am
  34   19   40 1
  35   20   21 1
  36   20   22 2
  37   21   41 1
  38   21   42 1
  39   21   43 1
  40   23   25 ar
  41   23   29 ar
  42   25   26 ar
  43   25   44 1
  44   26   27 ar
  45   26   45 1
  46   27   28 ar
  47   27   46 1
  48   28   29 ar
  49   28   47 1
  50   29   48 1

#	End of record

