#	Name: ASD01813584
#	Creating user name:	WinNT
#	Creation time:	15. 06. 2019 19:30

#	Modifying user name:	WinNT
#	Modification time:	15. 06. 2019 19:30

#	Program:	/corina/corina34_cracker 3.40 0067  02.08.2006

@<TRIPOS>MOLECULE
ASD01813584
  45   48    0    0    0
SMALL
NO_CHARGES


@<TRIPOS>ATOM
   1 C1            -0.3465     0.9786     0.1847 C.ar    
   2 C2            -0.1964    -0.3987     0.1332 C.ar    
   3 C3             1.0588    -0.9703     0.0849 C.ar    
   4 C4             2.1935    -0.1610     0.0870 C.ar    
   5 C5             2.0398     1.2350     0.1388 C.ar    
   6 C6             0.7629     1.8001     0.1879 C.ar    
   7 N7             3.4530    -0.7205     0.0400 N.pl3   
   8 C8             4.5731     0.0132     0.0409 C.2     
   9 C9             4.5486     1.3924     0.0896 C.2     
  10 C10            3.2475     2.0793     0.1405 C.2     
  11 O11            3.1725     3.2949     0.1841 O.2     
  12 C12            5.8004     2.1623     0.0899 C.2     
  13 O13            5.7634     3.5090     0.1377 O.3     
  14 O14            6.8692     1.5847     0.0469 O.2     
  15 C15            3.5706    -2.1799    -0.0126 C.3     
  16 C16            3.4312    -2.6439    -1.4396 C.ar    
  17 N17            2.2304    -2.8443    -1.9433 N.ar    
  18 C18            2.0604    -3.2524    -3.1949 C.ar    
  19 C19            3.1598    -3.4828    -4.0200 C.ar    
  20 C20            4.4327    -3.2801    -3.5163 C.ar    
  21 C21            4.5650    -2.8481    -2.2040 C.ar    
  22 F22            1.1877    -2.3142     0.0359 F       
  23 F23            0.6150     3.1420     0.2372 F       
  24 C24            0.6906    -3.4652    -3.7189 C.ar    
  25 C25           -0.2357    -4.2144    -2.9832 C.ar    
  26 C26           -1.5163    -4.4079    -3.4831 C.ar    
  27 C27           -1.8726    -3.8634    -4.7011 C.ar    
  28 C28           -0.9583    -3.1223    -5.4301 C.ar    
  29 C29            0.3162    -2.9161    -4.9436 C.ar    
  30 N30            0.1264    -4.7638    -1.7548 N.pl3   
  31 H31           -1.3357     1.4108     0.2181 H       
  32 H32           -1.0716    -1.0315     0.1313 H       
  33 H33            5.5274    -0.4909     0.0025 H       
  34 H34            6.6125     3.9718     0.1358 H       
  35 H35            4.5447    -2.4800     0.3736 H       
  36 H36            2.7849    -2.6298     0.5942 H       
  37 H37            3.0203    -3.8151    -5.0381 H       
  38 H38            5.3036    -3.4507    -4.1317 H       
  39 H39            5.5447    -2.6804    -1.7816 H       
  40 H40           -2.2342    -4.9850    -2.9192 H       
  41 H41           -2.8696    -4.0167    -5.0870 H       
  42 H42           -1.2453    -2.7000    -6.3818 H       
  43 H43            1.0260    -2.3370    -5.5157 H       
  44 H44            0.9981    -4.5711    -1.3754 H       
  45 H45           -0.4932    -5.3388    -1.2791 H       
@<TRIPOS>BOND
   1    1    2 ar
   2    1    6 ar
   3    1   31 1
   4    2    3 ar
   5    2   32 1
   6    3    4 ar
   7    3   22 1
   8    4    5 ar
   9    4    7 1
  10    5    6 ar
  11    5   10 1
  12    6   23 1
  13    7    8 1
  14    7   15 1
  15    8    9 2
  16    8   33 1
  17    9   10 1
  18    9   12 1
  19   10   11 2
  20   12   13 1
  21   12   14 2
  22   13   34 1
  23   15   16 1
  24   15   35 1
  25   15   36 1
  26   16   17 ar
  27   16   21 ar
  28   17   18 ar
  29   18   19 ar
  30   18   24 1
  31   19   20 ar
  32   19   37 1
  33   20   21 ar
  34   20   38 1
  35   21   39 1
  36   24   25 ar
  37   24   29 ar
  38   25   26 ar
  39   25   30 1
  40   26   27 ar
  41   26   40 1
  42   27   28 ar
  43   27   41 1
  44   28   29 ar
  45   28   42 1
  46   29   43 1
  47   30   44 1
  48   30   45 1

#	End of record

