#	Name: ASD03110042
#	Creating user name:	WinNT
#	Creation time:	15. 06. 2019 20:33

#	Modifying user name:	WinNT
#	Modification time:	15. 06. 2019 20:33

#	Program:	/corina/corina34_cracker 3.40 0067  02.08.2006

@<TRIPOS>MOLECULE
ASD03110042
  22   23    0    0    0
SMALL
NO_CHARGES


@<TRIPOS>ATOM
   1 C1            -0.0187     1.5258     0.0104 C.3     
   2 C2             0.5051     2.2745    -1.2290 C.3     
   3 C3            -0.1446     3.5910    -1.5809 C.2     
   4 C4            -1.1869     4.1132    -0.8095 C.2     
   5 C5            -1.6925     3.5168     0.2788 C.2     
   6 C6            -1.1636     2.1849     0.8001 C.3     
   7 C7             0.0021    -0.0041     0.0020 C.3     
   8 O8            -0.7374     2.3852     2.1492 O.3     
   9 O9             0.2457     4.2079    -2.5519 O.2     
  10 O10            1.2285     2.2234     0.0023 O.3     
  11 O11           -2.6985     4.1164     0.9433 O.3     
  12 C12           -3.1682     5.3873     0.4213 C.3     
  13 H13            0.8586     1.6802    -2.0715 H       
  14 H14           -1.6121     5.0594    -1.1101 H       
  15 H15           -1.9975     1.4833     0.8222 H       
  16 H16           -0.3586    -0.3776     0.9604 H       
  17 H17           -0.6418    -0.3718    -0.7969 H       
  18 H18            1.0215    -0.3527    -0.1634 H       
  19 H19           -1.4395     2.6840     2.7433 H       
  20 H20           -2.3483     6.1054     0.4211 H       
  21 H21           -3.5311     5.2498    -0.5973 H       
  22 H22           -3.9780     5.7606     1.0482 H       
@<TRIPOS>BOND
   1    1    7 1
   2    1   10 1
   3    1    2 1
   4    1    6 1
   5    2    3 1
   6    2   10 1
   7    2   13 1
   8    3    4 1
   9    3    9 2
  10    4    5 2
  11    4   14 1
  12    5    6 1
  13    5   11 1
  14    6    8 1
  15    6   15 1
  16    7   16 1
  17    7   17 1
  18    7   18 1
  19    8   19 1
  20   11   12 1
  21   12   20 1
  22   12   21 1
  23   12   22 1

#	End of record

