#	Name: ASD07301068
#	Creating user name:	WinNT
#	Creation time:	15. 06. 2019 21:10

#	Modifying user name:	WinNT
#	Modification time:	15. 06. 2019 21:10

#	Program:	/corina/corina34_cracker 3.40 0067  02.08.2006

@<TRIPOS>MOLECULE
ASD07301068
  30   31    0    0    0
SMALL
NO_CHARGES


@<TRIPOS>ATOM
   1 C1             1.2970     0.3935    -0.6682 C.3     
   2 C2             0.0071    -0.0049     0.0015 C.2     
   3 C3             0.0342    -0.8358     1.2058 C.2     
   4 C4            -0.1095    -2.2879     1.0961 C.2     
   5 C5            -0.0816    -3.1436     2.3363 C.3     
   6 O6            -1.0542     0.3634    -0.4578 O.2     
   7 O7            -0.2513    -2.8031     0.0064 O.2     
   8 N8             0.1889    -0.2736     2.3948 N.2     
   9 N9             0.4116     0.9938     2.4849 N.pl3   
  10 O10            1.3887     4.8429     4.9036 O.3     
  11 C11            0.8391     5.1570     3.6103 C.3     
  12 O12            0.9532     3.9205     2.8814 O.3     
  13 C13            0.9210     2.9363     3.8266 C.ar    
  14 C14            1.1885     3.5026     5.0690 C.ar    
  15 C15            0.6803     1.5682     3.7277 C.ar    
  16 C16            0.7079     0.7760     4.8699 C.ar    
  17 C17            0.9730     1.3450     6.0996 C.ar    
  18 C18            1.2130     2.7035     6.2013 C.ar    
  19 F19           -0.5020     5.5380     3.7253 F       
  20 F20            1.5862     6.1642     2.9900 F       
  21 H21            1.6129    -0.3977    -1.3480 H       
  22 H22            1.1453     1.3156    -1.2294 H       
  23 H23            2.0657     0.5510     0.0884 H       
  24 H24            0.0527    -2.5093     3.2125 H       
  25 H25           -1.0216    -3.6886     2.4230 H       
  26 H26            0.7443    -3.8519     2.2705 H       
  27 H27            0.3923     1.5475     1.6887 H       
  28 H28            0.5215    -0.2852     4.7953 H       
  29 H29            0.9934     0.7272     6.9852 H       
  30 H30            1.4209     3.1428     7.1658 H       
@<TRIPOS>BOND
   1    1    2 1
   2    1   21 1
   3    1   22 1
   4    1   23 1
   5    2    3 1
   6    2    6 2
   7    3    4 1
   8    3    8 2
   9    4    5 1
  10    4    7 2
  11    5   24 1
  12    5   25 1
  13    5   26 1
  14    8    9 1
  15    9   15 1
  16    9   27 1
  17   10   11 1
  18   10   14 1
  19   11   12 1
  20   11   19 1
  21   11   20 1
  22   12   13 1
  23   13   14 ar
  24   13   15 ar
  25   14   18 ar
  26   15   16 ar
  27   16   17 ar
  28   16   28 1
  29   17   18 ar
  30   17   29 1
  31   18   30 1

#	End of record

