#	Name: ASD03912077
#	Creating user name:	WinNT
#	Creation time:	15. 06. 2019 20:47

#	Modifying user name:	WinNT
#	Modification time:	15. 06. 2019 20:47

#	Program:	/corina/corina34_cracker 3.40 0067  02.08.2006

@<TRIPOS>MOLECULE
ASD03912077
  68   70    0    0    0
SMALL
NO_CHARGES


@<TRIPOS>ATOM
   1 C1             1.8787     2.6172     0.3079 C.ar    
   2 C2             2.3164     1.5536     1.0756 C.ar    
   3 C3             1.4194     0.8401     1.8492 C.ar    
   4 C4             0.0828     1.1875     1.8569 C.ar    
   5 C5            -0.3600     2.2551     1.0870 C.ar    
   6 C6             0.5443     2.9736     0.3160 C.ar    
   7 C7             2.8596     3.3922    -0.5336 C.3     
   8 C8             1.9008    -0.3183     2.6843 C.3     
   9 N9            -1.7136     2.6098     1.0926 N.am    
  10 C10           -2.0706     3.9072     1.0179 C.2     
  11 C11           -3.5240     4.2822     0.8831 C.3     
  12 O12           -1.2222     4.7730     1.0592 O.2     
  13 C13           -3.6426     5.7724     0.6921 C.ar    
  14 C14           -3.7149     6.3011    -0.5834 C.ar    
  15 C15           -3.8237     7.6667    -0.7612 C.ar    
  16 C16           -3.8604     8.5078     0.3414 C.ar    
  17 C17           -3.7877     7.9749     1.6202 C.ar    
  18 C18           -3.6847     6.6081     1.7928 C.ar    
  19 O19           -3.9670     9.8516     0.1692 O.3     
  20 C20           -4.1011    10.6482     1.3479 C.3     
  21 C21           -5.3301    10.2322     2.1145 C.2     
  22 C22           -2.8513    10.4954     2.2324 C.3     
  23 C23           -2.2276    11.9005     2.3605 C.3     
  24 C24           -3.4080    12.8662     2.0903 C.3     
  25 C25           -4.1945    12.1408     0.9693 C.3     
  26 N26           -6.4558     9.8979     1.4531 N.am    
  27 O27           -5.3061    10.1983     3.3266 O.2     
  28 C28           -7.6216     9.4076     2.1925 C.3     
  29 C29           -8.4285    10.5783     2.6919 C.2     
  30 O30           -8.0668    11.7065     2.4545 O.2     
  31 O31           -9.5489    10.3678     3.4004 O.3     
  32 C32           -8.4873     8.5486     1.2686 C.3     
  33 C33           -7.7106     7.2947     0.8621 C.3     
  34 C34           -8.6049     6.3895     0.0548 C.2     
  35 O35           -9.7138     6.7558    -0.2553 O.2     
  36 O36           -8.1697     5.1763    -0.3199 O.3     
  37 H37            3.3610     1.2795     1.0708 H       
  38 H38           -0.6174     0.6294     2.4607 H       
  39 H39            0.2031     3.8046    -0.2835 H       
  40 H40            2.9921     2.8902    -1.4920 H       
  41 H41            2.4786     4.3996    -0.7007 H       
  42 H42            3.8177     3.4472    -0.0168 H       
  43 H43            2.1877     0.0408     3.6727 H       
  44 H44            1.1012    -1.0525     2.7825 H       
  45 H45            2.7617    -0.7811     2.2018 H       
  46 H46           -2.3950     1.9218     1.1503 H       
  47 H47           -3.9530     3.7702     0.0218 H       
  48 H48           -4.0604     3.9877     1.7851 H       
  49 H49           -3.6860     5.6459    -1.4415 H       
  50 H50           -3.8798     8.0792    -1.7577 H       
  51 H51           -3.8161     8.6276     2.4802 H       
  52 H52           -3.6280     6.1927     2.7881 H       
  53 H53           -3.1338    10.1211     3.2164 H       
  54 H54           -2.1424     9.8136     1.7626 H       
  55 H55           -1.8327    12.0524     3.3651 H       
  56 H56           -1.4433    12.0390     1.6163 H       
  57 H57           -4.0248    12.9812     2.9817 H       
  58 H58           -3.0443    13.8333     1.7434 H       
  59 H59           -3.7282    12.3179     0.0002 H       
  60 H60           -5.2340    12.4686     0.9591 H       
  61 H61           -6.4941     9.9818     0.4875 H       
  62 H62           -7.2887     8.8080     3.0397 H       
  63 H63          -10.0328    11.1499     3.6993 H       
  64 H64           -9.3987     8.2580     1.7911 H       
  65 H65           -8.7459     9.1206     0.3775 H       
  66 H66           -6.8466     7.5809     0.2623 H       
  67 H67           -7.3743     6.7698     1.7563 H       
  68 H68           -8.7790     4.6315    -0.8366 H       
@<TRIPOS>BOND
   1    1    2 ar
   2    1    7 1
   3    1    6 ar
   4    2    3 ar
   5    2   37 1
   6    3    4 ar
   7    3    8 1
   8    4    5 ar
   9    4   38 1
  10    5    6 ar
  11    5    9 1
  12    6   39 1
  13    7   40 1
  14    7   41 1
  15    7   42 1
  16    8   43 1
  17    8   44 1
  18    8   45 1
  19    9   10 am
  20    9   46 1
  21   10   11 1
  22   10   12 2
  23   11   13 1
  24   11   47 1
  25   11   48 1
  26   13   14 ar
  27   13   18 ar
  28   14   15 ar
  29   14   49 1
  30   15   16 ar
  31   15   50 1
  32   16   17 ar
  33   16   19 1
  34   17   18 ar
  35   17   51 1
  36   18   52 1
  37   19   20 1
  38   20   21 1
  39   20   22 1
  40   20   25 1
  41   21   26 am
  42   21   27 2
  43   22   23 1
  44   22   53 1
  45   22   54 1
  46   23   24 1
  47   23   55 1
  48   23   56 1
  49   24   25 1
  50   24   57 1
  51   24   58 1
  52   25   59 1
  53   25   60 1
  54   26   28 1
  55   26   61 1
  56   28   29 1
  57   28   32 1
  58   28   62 1
  59   29   30 2
  60   29   31 1
  61   31   63 1
  62   32   33 1
  63   32   64 1
  64   32   65 1
  65   33   34 1
  66   33   66 1
  67   33   67 1
  68   34   35 2
  69   34   36 1
  70   36   68 1

#	End of record

