#	Name: ASD01914326
#	Creating user name:	WinNT
#	Creation time:	15. 06. 2019 20:03

#	Modifying user name:	WinNT
#	Modification time:	15. 06. 2019 20:03

#	Program:	/corina/corina34_cracker 3.40 0067  02.08.2006

@<TRIPOS>MOLECULE
ASD01914326
  35   37    0    0    0
SMALL
NO_CHARGES


@<TRIPOS>ATOM
   1 N1            -0.0567     1.3023    -0.0093 N.pl3   
   2 C2             0.0536    -0.0515    -0.1586 C.2     
   3 C3             1.2058     1.7960     0.1485 C.2     
   4 N4             2.0560     0.7965     0.0993 N.2     
   5 C5             1.3788    -0.3508    -0.0884 C.2     
   6 C6             1.5578     3.2196     0.3426 C.ar    
   7 C7             0.6494     4.2197    -0.0059 C.ar    
   8 C8             0.9838     5.5456     0.1776 C.ar    
   9 C9             2.2169     5.8845     0.7055 C.ar    
  10 C10            3.1222     4.8976     1.0527 C.ar    
  11 C11            2.7974     3.5678     0.8804 C.ar    
  12 C12            1.9733    -1.7057    -0.1987 C.ar    
  13 C13            3.3539    -1.8731    -0.1084 C.ar    
  14 C14            1.1529    -2.8162    -0.3871 C.ar    
  15 C15            1.7113    -4.0743    -0.4885 C.ar    
  16 C16            3.0826    -4.2340    -0.4035 C.ar    
  17 C17            3.9014    -3.1358    -0.2112 C.ar    
  18 C18           -1.2984     2.0796    -0.0224 C.3     
  19 C19           -1.5788     2.5548    -1.4248 C.2     
  20 O20           -2.6722     3.2910    -1.6780 O.3     
  21 O21           -0.8193     2.2730    -2.3213 O.2     
  22 H22           -0.7567    -0.7506    -0.3041 H       
  23 H23           -0.3133     3.9565    -0.4188 H       
  24 H24            0.2815     6.3207    -0.0918 H       
  25 H25            2.4740     6.9238     0.8469 H       
  26 H26            4.0833     5.1686     1.4640 H       
  27 H27            3.5048     2.7983     1.1522 H       
  28 H28            3.9941    -1.0163     0.0413 H       
  29 H29            0.0820    -2.6927    -0.4532 H       
  30 H30            1.0763    -4.9357    -0.6342 H       
  31 H31            3.5154    -5.2202    -0.4834 H       
  32 H32            4.9715    -3.2662    -0.1456 H       
  33 H33           -2.1224     1.4540     0.3207 H       
  34 H34           -1.1955     2.9399     0.6389 H       
  35 H35           -2.8096     3.5727    -2.5928 H       
@<TRIPOS>BOND
   1    1    2 1
   2    1    3 1
   3    1   18 1
   4    2    5 2
   5    2   22 1
   6    3    4 2
   7    3    6 1
   8    4    5 1
   9    5   12 1
  10    6    7 ar
  11    6   11 ar
  12    7    8 ar
  13    7   23 1
  14    8    9 ar
  15    8   24 1
  16    9   10 ar
  17    9   25 1
  18   10   11 ar
  19   10   26 1
  20   11   27 1
  21   12   13 ar
  22   12   14 ar
  23   13   17 ar
  24   13   28 1
  25   14   15 ar
  26   14   29 1
  27   15   16 ar
  28   15   30 1
  29   16   17 ar
  30   16   31 1
  31   17   32 1
  32   18   19 1
  33   18   33 1
  34   18   34 1
  35   19   20 1
  36   19   21 2
  37   20   35 1

#	End of record

