#	Name: ASD01918535
#	Creating user name:	WinNT
#	Creation time:	15. 06. 2019 20:11

#	Modifying user name:	WinNT
#	Modification time:	15. 06. 2019 20:11

#	Program:	/corina/corina34_cracker 3.40 0067  02.08.2006

@<TRIPOS>MOLECULE
ASD01918535
  40   43    0    0    0
SMALL
NO_CHARGES


@<TRIPOS>ATOM
   1 C1            -0.0184     1.5028     0.0103 C.3     
   2 C2             0.0021    -0.0041     0.0020 C.ar    
   3 C3             0.0059    -0.6979    -1.1996 C.ar    
   4 C4             0.0248    -2.0815    -1.1637 C.ar    
   5 C5             0.0393    -2.7264     0.0710 C.ar    
   6 N6             0.0350    -2.0258     1.1977 N.ar    
   7 C7             0.0229    -0.7083     1.1917 C.ar    
   8 C8             0.0592    -4.2087     0.1265 C.2     
   9 C9             0.0696    -4.9949     1.2982 C.2     
  10 C10            0.0862    -6.2853     0.9253 C.2     
  11 C11            0.0977    -7.5128     1.8026 C.3     
  12 N12           -0.2659    -8.6728     0.9698 N.3     
  13 C13            0.5387    -8.7154    -0.2594 C.3     
  14 C14            0.1094    -7.5813    -1.1986 C.3     
  15 N15            0.0887    -6.3320    -0.4304 N.pl3   
  16 N16            0.0644    -5.0236    -0.9108 N.2     
  17 C17           -0.1443    -9.8585     1.6864 C.ar    
  18 C18            1.0950   -10.2773     2.1565 C.ar    
  19 N19            1.2140   -11.3991     2.8357 N.ar    
  20 C20            0.1790   -12.1727     3.1017 C.ar    
  21 C21           -1.0896   -11.8379     2.6755 C.ar    
  22 C22           -1.2740   -10.6527     1.9537 C.ar    
  23 C23           -2.5739   -10.2630     1.4963 C.1     
  24 N24           -3.6050    -9.9538     1.1335 N.1     
  25 H25            1.0042     1.8801     0.0026 H       
  26 H26           -0.5455     1.8639    -0.8728 H       
  27 H27           -0.5286     1.8543     0.9071 H       
  28 H28           -0.0060    -0.1702    -2.1419 H       
  29 H29            0.0279    -2.6531    -2.0801 H       
  30 H30            0.0245    -0.1713     2.1287 H       
  31 H31            0.0653    -4.6253     2.3130 H       
  32 H32            1.0939    -7.6573     2.2206 H       
  33 H33           -0.6271    -7.3963     2.6084 H       
  34 H34            1.5926    -8.5979    -0.0071 H       
  35 H35            0.3904    -9.6739    -0.7568 H       
  36 H36            0.8203    -7.4957    -2.0205 H       
  37 H37           -0.8858    -7.7872    -1.5926 H       
  38 H38            1.9706    -9.6757     1.9621 H       
  39 H39            0.3274   -13.0838     3.6623 H       
  40 H40           -1.9293   -12.4790     2.8993 H       
@<TRIPOS>BOND
   1    1    2 1
   2    1   25 1
   3    1   26 1
   4    1   27 1
   5    2    7 ar
   6    2    3 ar
   7    3    4 ar
   8    3   28 1
   9    4    5 ar
  10    4   29 1
  11    5    6 ar
  12    5    8 1
  13    6    7 ar
  14    7   30 1
  15    8   16 2
  16    8    9 1
  17    9   10 2
  18    9   31 1
  19   10   15 1
  20   10   11 1
  21   11   12 1
  22   11   32 1
  23   11   33 1
  24   12   13 1
  25   12   17 1
  26   13   14 1
  27   13   34 1
  28   13   35 1
  29   14   15 1
  30   14   36 1
  31   14   37 1
  32   15   16 1
  33   17   22 ar
  34   17   18 ar
  35   18   19 ar
  36   18   38 1
  37   19   20 ar
  38   20   21 ar
  39   20   39 1
  40   21   22 ar
  41   21   40 1
  42   22   23 1
  43   23   24 3

#	End of record

