#	Name: ASD00069005
#	Creating user name:	WinNT
#	Creation time:	15. 06. 2019 18:29

#	Modifying user name:	WinNT
#	Modification time:	15. 06. 2019 18:29

#	Program:	/corina/corina34_cracker 3.40 0067  02.08.2006

@<TRIPOS>MOLECULE
ASD00069005
  48   52    0    0    0
SMALL
NO_CHARGES


@<TRIPOS>ATOM
   1 C1            -0.0108     1.3869     0.0187 C.ar    
   2 C2             0.0042    -0.0075     0.0077 C.ar    
   3 C3             1.2048    -0.6915    -0.0046 C.ar    
   4 C4             2.4035     0.0240    -0.0065 C.ar    
   5 C5             2.3785     1.4302     0.0041 C.ar    
   6 C6             1.1555     2.0967     0.0169 C.ar    
   7 C7             3.8194    -0.3636    -0.0179 C.2     
   8 N8             4.5314     0.7400    -0.0140 N.2     
   9 N9             3.6851     1.8531    -0.0006 N.pl3   
  10 C10            4.3467    -1.7422    -0.0310 C.2     
  11 N11            3.6143    -2.8305    -0.0347 N.2     
  12 C12            4.4190    -3.9209    -0.0480 C.ar    
  13 C13            5.7467    -3.4579    -0.0528 C.ar    
  14 N14            5.6745    -2.0780    -0.0470 N.pl3   
  15 C15            4.1712    -5.2975    -0.0574 C.ar    
  16 C16            5.2161    -6.1772    -0.0710 C.ar    
  17 C17            6.5263    -5.7201    -0.0753 C.ar    
  18 C18            6.7949    -4.3674    -0.0663 C.ar    
  19 N19           -1.2032    -0.7179     0.0097 N.am    
  20 C20           -1.3022    -1.8804    -0.6652 C.2     
  21 C21           -2.5600    -2.7045    -0.5658 C.3     
  22 O22           -0.3790    -2.2632    -1.3524 O.2     
  23 C23           -2.4129    -3.9646    -1.4211 C.3     
  24 C24           -3.6898    -4.8013    -1.3203 C.3     
  25 C25           -3.9249    -5.1994     0.1382 C.3     
  26 C26           -4.0720    -3.9394     0.9935 C.3     
  27 C27           -2.7950    -3.1026     0.8926 C.3     
  28 F28           -5.0925    -5.9645     0.2304 F       
  29 F29           -2.8377    -5.9506     0.5976 F       
  30 H30           -0.9551     1.9110     0.0241 H       
  31 H31            1.2157    -1.7714    -0.0124 H       
  32 H32            1.1298     3.1763     0.0252 H       
  33 H33            3.9754     2.7787     0.0041 H       
  34 H34            6.4241    -1.4623    -0.0482 H       
  35 H35            3.1554    -5.6643    -0.0534 H       
  36 H36            5.0206    -7.2393    -0.0782 H       
  37 H37            7.3414    -6.4286    -0.0853 H       
  38 H38            7.8166    -4.0173    -0.0697 H       
  39 H39           -1.9680    -0.3732     0.4967 H       
  40 H40           -3.4070    -2.1193    -0.9238 H       
  41 H41           -2.2454    -3.6810    -2.4602 H       
  42 H42           -1.5658    -4.5498    -1.0632 H       
  43 H43           -4.5369    -4.2161    -1.6782 H       
  44 H44           -3.5851    -5.6990    -1.9296 H       
  45 H45           -4.9190    -3.3541     0.6355 H       
  46 H46           -4.2394    -4.2230     2.0325 H       
  47 H47           -1.9479    -3.6878     1.2506 H       
  48 H48           -2.8998    -2.2049     1.5019 H       
@<TRIPOS>BOND
   1    1    2 ar
   2    1    6 ar
   3    1   30 1
   4    2    3 ar
   5    2   19 1
   6    3    4 ar
   7    3   31 1
   8    4    5 ar
   9    4    7 1
  10    5    6 ar
  11    5    9 1
  12    6   32 1
  13    7    8 2
  14    7   10 1
  15    8    9 1
  16    9   33 1
  17   10   11 2
  18   10   14 1
  19   11   12 1
  20   12   13 ar
  21   12   15 ar
  22   13   14 1
  23   13   18 ar
  24   14   34 1
  25   15   16 ar
  26   15   35 1
  27   16   17 ar
  28   16   36 1
  29   17   18 ar
  30   17   37 1
  31   18   38 1
  32   19   20 am
  33   19   39 1
  34   20   21 1
  35   20   22 2
  36   21   23 1
  37   21   27 1
  38   21   40 1
  39   23   24 1
  40   23   41 1
  41   23   42 1
  42   24   25 1
  43   24   43 1
  44   24   44 1
  45   25   26 1
  46   25   28 1
  47   25   29 1
  48   26   27 1
  49   26   45 1
  50   26   46 1
  51   27   47 1
  52   27   48 1

#	End of record

