#	Name: ASD04230078
#	Creating user name:	WinNT
#	Creation time:	15. 06. 2019 20:48

#	Modifying user name:	WinNT
#	Modification time:	15. 06. 2019 20:48

#	Program:	/corina/corina34_cracker 3.40 0067  02.08.2006

@<TRIPOS>MOLECULE
ASD04230078
  52   55    0    0    0
SMALL
NO_CHARGES


@<TRIPOS>ATOM
   1 C1             1.5358     4.6863     1.7197 C.ar    
   2 C2             2.5436     5.3841     2.3695 C.ar    
   3 C3             3.8002     4.8590     2.4683 C.ar    
   4 C4             4.0822     3.6081     1.9007 C.ar    
   5 C5             3.0562     2.8818     1.2694 C.ar    
   6 C6             1.7830     3.4397     1.1726 C.ar    
   7 C7             5.3931     3.0678     1.9624 C.2     
   8 C8             5.6627     1.9284     1.2160 C.2     
   9 C9             4.5671     1.3877     0.3908 C.2     
  10 O10            3.2977     1.6422     0.7797 O.3     
  11 C11            6.9877     1.2871     1.2470 C.2     
  12 N12            7.2188     0.1818     0.5112 N.am    
  13 O13            7.8738     1.7548     1.9366 O.2     
  14 C14            8.5058    -0.3623     0.4518 C.ar    
  15 C15            8.6753    -1.7390     0.3696 C.ar    
  16 C16            9.9457    -2.2803     0.3113 C.ar    
  17 C17           11.0532    -1.4566     0.3343 C.ar    
  18 C18           10.8927    -0.0742     0.4162 C.ar    
  19 C19            9.6134     0.4724     0.4692 C.ar    
  20 C20           12.0820     0.8125     0.4411 C.ar    
  21 O21            4.7981     0.7334    -0.6088 O.2     
  22 C22           13.3624     0.2651     0.3826 C.ar    
  23 C23           14.4660     1.0917     0.4060 C.ar    
  24 C24           14.3026     2.4680     0.4876 C.ar    
  25 C25           13.0284     3.0161     0.5460 C.ar    
  26 C26           11.9209     2.1948     0.5172 C.ar    
  27 O27           15.3917     3.2799     0.5109 O.3     
  28 C28           15.1510     4.6859     0.5959 C.3     
  29 C29           16.4867     5.4321     0.6102 C.3     
  30 O30            0.7868     2.7610     0.5435 O.3     
  31 C31           -0.4923     3.3951     0.4828 C.3     
  32 H32            0.5487     5.1179     1.6441 H       
  33 H33            2.3325     6.3515     2.8008 H       
  34 H34            4.5760     5.4066     2.9828 H       
  35 H35            6.1573     3.5287     2.5707 H       
  36 H36            6.4924    -0.2364     0.0228 H       
  37 H37            7.8121    -2.3878     0.3516 H       
  38 H38           10.0723    -3.3510     0.2478 H       
  39 H39           12.0443    -1.8833     0.2893 H       
  40 H40            9.4840     1.5428     0.5324 H       
  41 H41           13.4902    -0.8055     0.3195 H       
  42 H42           15.4584     0.6680     0.3611 H       
  43 H43           12.9042     4.0871     0.6094 H       
  44 H44           10.9300     2.6218     0.5626 H       
  45 H45           14.5648     5.0069    -0.2652 H       
  46 H46           14.6021     4.9059     1.5115 H       
  47 H47           17.0729     5.1111     1.4713 H       
  48 H48           17.0356     5.2121    -0.3054 H       
  49 H49           16.3031     6.5045     0.6750 H       
  50 H50           -0.8557     3.5777     1.4941 H       
  51 H51           -0.4032     4.3429    -0.0479 H       
  52 H52           -1.1939     2.7482    -0.0440 H       
@<TRIPOS>BOND
   1    1    2 ar
   2    1    6 ar
   3    1   32 1
   4    2    3 ar
   5    2   33 1
   6    3    4 ar
   7    3   34 1
   8    4    5 ar
   9    4    7 1
  10    5    6 ar
  11    5   10 1
  12    6   30 1
  13    7    8 2
  14    7   35 1
  15    8    9 1
  16    8   11 1
  17    9   10 1
  18    9   21 2
  19   11   12 am
  20   11   13 2
  21   12   14 1
  22   12   36 1
  23   14   15 ar
  24   14   19 ar
  25   15   16 ar
  26   15   37 1
  27   16   17 ar
  28   16   38 1
  29   17   18 ar
  30   17   39 1
  31   18   19 ar
  32   18   20 1
  33   19   40 1
  34   20   22 ar
  35   20   26 ar
  36   22   23 ar
  37   22   41 1
  38   23   24 ar
  39   23   42 1
  40   24   25 ar
  41   24   27 1
  42   25   26 ar
  43   25   43 1
  44   26   44 1
  45   27   28 1
  46   28   29 1
  47   28   45 1
  48   28   46 1
  49   29   47 1
  50   29   48 1
  51   29   49 1
  52   30   31 1
  53   31   50 1
  54   31   51 1
  55   31   52 1

#	End of record

