#	Name: ASD02039457
#	Creating user name:	WinNT
#	Creation time:	15. 06. 2019 20:18

#	Modifying user name:	WinNT
#	Modification time:	15. 06. 2019 20:18

#	Program:	/corina/corina34_cracker 3.40 0067  02.08.2006

@<TRIPOS>MOLECULE
ASD02039457
  52   54    0    0    0
SMALL
NO_CHARGES


@<TRIPOS>ATOM
   1 C1             0.3207     1.3096     0.3249 C.ar    
   2 C2             0.4989    -0.0639     0.4063 C.ar    
   3 C3             1.4915     2.2248     0.0745 C.3     
   4 N4             1.6639     2.4139    -1.3680 N.am    
   5 C5             1.0294     3.4236    -1.9959 C.2     
   6 C6             1.2800     3.6752    -3.4256 C.2     
   7 C7             0.6330     4.5849    -4.2099 C.2     
   8 N8             2.2009     3.0482    -4.2014 N.2     
   9 C9             2.1343     3.5319    -5.4081 C.2     
  10 N10            1.1705     4.4885    -5.4486 N.pl3   
  11 O11            0.2499     4.1272    -1.3821 O.2     
  12 C12            0.7820     5.2742    -6.6225 C.3     
  13 C13            2.5259     1.5053    -2.1280 C.3     
  14 C14           -0.5956    -0.8772     0.6370 C.ar    
  15 C15           -2.0153     0.9419     0.6976 C.ar    
  16 C16           -0.9576     1.8201     0.4731 C.ar    
  17 C17           -3.3910     1.4731     0.8585 C.ar    
  18 C18           -4.4541     0.6021     1.0832 C.ar    
  19 C19           -5.7366     1.1044     1.2326 C.ar    
  20 C20           -5.9593     2.4723     1.1582 C.ar    
  21 C21           -4.9043     3.3375     0.9351 C.ar    
  22 C22           -3.6226     2.8461     0.7908 C.ar    
  23 N23           -1.8008    -0.3649     0.7794 N.ar    
  24 C24            1.6720     0.4102    -2.7704 C.3     
  25 O25           -6.7767     0.2576     1.4517 O.3     
  26 O26            0.7949     0.9947    -3.7353 O.3     
  27 C27           -0.0513     0.0526    -4.3975 C.3     
  28 C28           -8.0716     0.8444     1.5963 C.3     
  29 F29           -8.3979     1.5471     0.4314 F       
  30 F30           -9.0182    -0.1625     1.8140 F       
  31 F31           -8.0665     1.7230     2.6850 F       
  32 H32            1.4828    -0.4938     0.2902 H       
  33 H33            1.3065     3.1892     0.5478 H       
  34 H34            2.3950     1.7818     0.4934 H       
  35 H35           -0.1570     5.2537    -3.9016 H       
  36 H36            2.7482     3.2244    -6.2418 H       
  37 H37           -0.0116     4.7556    -7.1604 H       
  38 H38            0.4247     6.2529    -6.3025 H       
  39 H39            1.6440     5.3985    -7.2780 H       
  40 H40            3.0461     2.0638    -2.9061 H       
  41 H41            3.2554     1.0508    -1.4576 H       
  42 H42           -0.4604    -1.9468     0.7010 H       
  43 H43           -1.1336     2.8836     0.4066 H       
  44 H44           -4.2793    -0.4621     1.1406 H       
  45 H45           -6.9598     2.8620     1.2745 H       
  46 H46           -5.0829     4.4010     0.8776 H       
  47 H47           -2.8005     3.5245     0.6167 H       
  48 H48            2.3207    -0.3152    -3.2614 H       
  49 H49            1.0841    -0.0903    -2.0010 H       
  50 H50            0.5617    -0.6802    -4.9223 H       
  51 H51           -0.6750    -0.4553    -3.6619 H       
  52 H52           -0.6860     0.5748    -5.1135 H       
@<TRIPOS>BOND
   1    1    2 ar
   2    1    3 1
   3    1   16 ar
   4    2   14 ar
   5    2   32 1
   6    3    4 1
   7    3   33 1
   8    3   34 1
   9    4    5 am
  10    4   13 1
  11    5    6 1
  12    5   11 2
  13    6    7 2
  14    6    8 1
  15    7   10 1
  16    7   35 1
  17    8    9 2
  18    9   10 1
  19    9   36 1
  20   10   12 1
  21   12   37 1
  22   12   38 1
  23   12   39 1
  24   13   24 1
  25   13   40 1
  26   13   41 1
  27   14   23 ar
  28   14   42 1
  29   15   16 ar
  30   15   17 1
  31   15   23 ar
  32   16   43 1
  33   17   18 ar
  34   17   22 ar
  35   18   19 ar
  36   18   44 1
  37   19   20 ar
  38   19   25 1
  39   20   21 ar
  40   20   45 1
  41   21   22 ar
  42   21   46 1
  43   22   47 1
  44   24   26 1
  45   24   48 1
  46   24   49 1
  47   25   28 1
  48   26   27 1
  49   27   50 1
  50   27   51 1
  51   27   52 1
  52   28   29 1
  53   28   30 1
  54   28   31 1

#	End of record

