#	Name: ASD06352004
#	Creating user name:	WinNT
#	Creation time:	15. 06. 2019 21:06

#	Modifying user name:	WinNT
#	Modification time:	15. 06. 2019 21:06

#	Program:	/corina/corina34_cracker 3.40 0067  02.08.2006

@<TRIPOS>MOLECULE
ASD06352004
  56   55    0    0    0
SMALL
NO_CHARGES


@<TRIPOS>ATOM
   1 C1            -0.1644     1.7764     0.6565 C.2     
   2 O2             0.0661     0.6092     0.4211 O.2     
   3 N3             2.1460     1.9512     1.3888 N.3     
   4 C4             0.9686     2.7208     0.9652 C.3     
   5 C5             1.3123     3.5313    -0.2862 C.3     
   6 C6             2.4626     4.4902     0.0273 C.3     
   7 C7             1.7319     2.5814    -1.4098 C.3     
   8 C8            -3.6978     2.0932    -0.2253 C.2     
   9 O9            -3.8219     3.2698     0.0415 O.2     
  10 N10           -1.4334     2.2300     0.6364 N.am    
  11 C11           -2.5343     1.3132     0.3304 C.3     
  12 C12           -2.9675     0.5919     1.6083 C.3     
  13 C13           -1.8338    -0.3147     2.0915 C.3     
  14 C14           -3.2925     1.6232     2.6908 C.3     
  15 C15           -7.0182     1.3557    -1.1859 C.2     
  16 O16           -6.8953     0.2580    -0.6852 O.2     
  17 N17           -4.6006     1.4833    -1.0187 N.am    
  18 C18           -5.8008     2.2035    -1.4511 C.3     
  19 C19           -5.7042     2.5032    -2.9483 C.3     
  20 C20           -4.5282     3.4101    -3.2043 C.2     
  21 O21           -3.8073     3.7418    -2.2871 O.2     
  22 N22           -4.2775     3.8525    -4.4524 N.am    
  23 C23          -10.6616     1.7341    -1.6923 C.2     
  24 O24          -10.5631     2.8374    -2.1750 O.2     
  25 N25           -8.2435     1.8174    -1.5053 N.am    
  26 C26           -9.4269     0.9933    -1.2476 C.3     
  27 O27          -11.8707     1.1684    -1.5522 O.3     
  28 H28            1.9646     1.4574     2.2498 H       
  29 H29            2.4429     1.3159     0.6633 H       
  30 H30            0.6697     3.3976     1.7657 H       
  31 H31            0.4387     4.1024    -0.6005 H       
  32 H32            3.3363     3.9191     0.3416 H       
  33 H33            2.7075     5.0676    -0.8642 H       
  34 H34            2.1637     5.1669     0.8277 H       
  35 H35            0.9124     1.8983    -1.6331 H       
  36 H36            1.9768     3.1588    -2.3012 H       
  37 H37            2.6055     2.0104    -1.0955 H       
  38 H38           -1.6177     3.1636     0.8246 H       
  39 H39           -2.2031     0.5808    -0.4058 H       
  40 H40           -3.8523    -0.0107     1.4032 H       
  41 H41           -0.9885     0.2971     2.4067 H       
  42 H42           -2.1816    -0.9146     2.9324 H       
  43 H43           -1.5234    -0.9725     1.2797 H       
  44 H44           -4.1002     2.2691     2.3465 H       
  45 H45           -3.6012     1.1093     3.6011 H       
  46 H46           -2.4077     2.2258     2.8959 H       
  47 H47           -4.4556     0.5675    -1.3035 H       
  48 H48           -5.8821     3.1392    -0.8978 H       
  49 H49           -5.5706     1.5711    -3.4975 H       
  50 H50           -6.6196     2.9927    -3.2807 H       
  51 H51           -4.8540     3.5872    -5.1860 H       
  52 H52           -3.5205     4.4363    -4.6172 H       
  53 H53           -8.3417     2.6954    -1.9058 H       
  54 H54           -9.4957     0.7798    -0.1809 H       
  55 H55           -9.3456     0.0576    -1.8009 H       
  56 H56          -12.6332     1.6821    -1.8519 H       
@<TRIPOS>BOND
   1    1    2 2
   2    1    4 1
   3    1   10 am
   4    3    4 1
   5    3   28 1
   6    3   29 1
   7    4    5 1
   8    4   30 1
   9    5    6 1
  10    5    7 1
  11    5   31 1
  12    6   32 1
  13    6   33 1
  14    6   34 1
  15    7   35 1
  16    7   36 1
  17    7   37 1
  18    8    9 2
  19    8   11 1
  20    8   17 am
  21   10   11 1
  22   10   38 1
  23   11   12 1
  24   11   39 1
  25   12   13 1
  26   12   14 1
  27   12   40 1
  28   13   41 1
  29   13   42 1
  30   13   43 1
  31   14   44 1
  32   14   45 1
  33   14   46 1
  34   15   16 2
  35   15   18 1
  36   15   25 am
  37   17   18 1
  38   17   47 1
  39   18   19 1
  40   18   48 1
  41   19   20 1
  42   19   49 1
  43   19   50 1
  44   20   21 2
  45   20   22 am
  46   22   51 1
  47   22   52 1
  48   23   24 2
  49   23   26 1
  50   23   27 1
  51   25   26 1
  52   25   53 1
  53   26   54 1
  54   26   55 1
  55   27   56 1

#	End of record

