#	Name: ASD04560185
#	Creating user name:	WinNT
#	Creation time:	15. 06. 2019 20:49

#	Modifying user name:	WinNT
#	Modification time:	15. 06. 2019 20:49

#	Program:	/corina/corina34_cracker 3.40 0067  02.08.2006

@<TRIPOS>MOLECULE
ASD04560185
  46   48    0    0    0
SMALL
NO_CHARGES


@<TRIPOS>ATOM
   1 C1             0.0987     1.1071    -0.4342 C.ar    
   2 C2             0.1952    -0.2575    -0.4332 C.ar    
   3 C3             1.4508    -0.8546    -0.3218 C.ar    
   4 N4             2.5492    -0.1177    -0.2168 N.ar    
   5 C5             2.5004     1.1978    -0.2138 C.ar    
   6 C6             1.2773     1.8622    -0.3222 C.ar    
   7 C7             1.2239     3.3358    -0.3192 C.2     
   8 O8             0.1539     3.9056    -0.4141 O.2     
   9 N9             2.3611     4.0511    -0.2112 N.am    
  10 C10            2.3241     5.4393    -0.3231 C.ar    
  11 C11            3.1895     6.2204     0.4371 C.ar    
  12 C12            1.3872     7.4125    -1.3128 C.ar    
  13 C13            1.4258     6.0415    -1.1991 C.ar    
  14 S14            1.5801    -2.6119    -0.3200 S.3     
  15 C15            3.3734    -2.7949    -0.1572 C.3     
  16 C16            3.7287    -4.2593    -0.1331 C.ar    
  17 C17            3.9075    -4.9541    -1.3280 C.ar    
  18 C18            4.2366    -6.3084    -1.2983 C.ar    
  19 C19            4.3835    -6.9535    -0.0877 C.ar    
  20 C20            4.2043    -6.2588     1.0957 C.ar    
  21 C21            3.8833    -4.9133     1.0721 C.ar    
  22 B22            3.7384    -4.2143    -2.7024 Du      
  23 O23            4.3952    -4.7086    -3.8603 O.3     
  24 O24            2.9287    -3.0509    -2.7877 O.3     
  25 C25            3.1557     7.5920     0.3291 C.ar    
  26 C26            2.2509     8.2006    -0.5460 C.ar    
  27 C27            2.2121     9.6698    -0.6648 C.2     
  28 O28            1.3394    10.2547    -1.5087 O.3     
  29 O29            2.9670    10.3531    -0.0018 O.2     
  30 H30           -0.8618     1.5928    -0.5236 H       
  31 H31           -0.6926    -0.8667    -0.5174 H       
  32 H32            3.4137     1.7676    -0.1264 H       
  33 H33            3.2053     3.5994    -0.0556 H       
  34 H34            3.8882     5.7496     1.1129 H       
  35 H35            0.6904     7.8792    -1.9933 H       
  36 H36            0.7585     5.4322    -1.7905 H       
  37 H37            3.8659    -2.3155    -1.0032 H       
  38 H38            3.7039    -2.3256     0.7693 H       
  39 H39            4.3759    -6.8517    -2.2212 H       
  40 H40            4.6384    -8.0027    -0.0635 H       
  41 H41            4.3199    -6.7679     2.0412 H       
  42 H42            3.7449    -4.3759     1.9987 H       
  43 H43            4.2314    -4.1873    -4.6581 H       
  44 H44            2.8853    -2.6659    -3.6736 H       
  45 H45            3.8271     8.1976     0.9198 H       
  46 H46            1.3511    11.2206    -1.5523 H       
@<TRIPOS>BOND
   1    1    2 ar
   2    1    6 ar
   3    1   30 1
   4    2    3 ar
   5    2   31 1
   6    3    4 ar
   7    3   14 1
   8    4    5 ar
   9    5    6 ar
  10    5   32 1
  11    6    7 1
  12    7    8 2
  13    7    9 am
  14    9   10 1
  15    9   33 1
  16   10   11 ar
  17   10   13 ar
  18   11   25 ar
  19   11   34 1
  20   12   13 ar
  21   12   26 ar
  22   12   35 1
  23   13   36 1
  24   14   15 1
  25   15   16 1
  26   15   37 1
  27   15   38 1
  28   16   17 ar
  29   16   21 ar
  30   17   18 ar
  31   17   22 1
  32   18   19 ar
  33   18   39 1
  34   19   20 ar
  35   19   40 1
  36   20   21 ar
  37   20   41 1
  38   21   42 1
  39   22   23 1
  40   22   24 1
  41   23   43 1
  42   24   44 1
  43   25   26 ar
  44   25   45 1
  45   26   27 1
  46   27   28 1
  47   27   29 2
  48   28   46 1

#	End of record

