#	Name: ASD01208620
#	Creating user name:	WinNT
#	Creation time:	15. 06. 2019 19:10

#	Modifying user name:	WinNT
#	Modification time:	15. 06. 2019 19:10

#	Program:	/corina/corina34_cracker 3.40 0067  02.08.2006

@<TRIPOS>MOLECULE
ASD01208620
  32   33    0    0    0
SMALL
NO_CHARGES


@<TRIPOS>ATOM
   1 N1            -0.0179     1.4666     0.0101 N.am    
   2 C2             0.0021    -0.0041     0.0020 C.3     
   3 C3             0.9085    -0.4723    -1.1414 C.3     
   4 N4             2.2251     0.1660    -1.0110 N.3     
   5 C5             2.1249     1.6258    -1.1417 C.3     
   6 C6             1.2683     2.1800     0.0017 C.3     
   7 C7             3.1764    -0.3856    -1.9851 C.3     
   8 S8            -1.4505     2.2971     0.0215 S.o2    
   9 O9            -1.1734     3.5825    -0.5173 O.2     
  10 O10           -2.4270     1.4202    -0.5231 O.2     
  11 C11           -1.8936     2.5496     1.7080 C.ar    
  12 C12           -1.4667     3.6845     2.3719 C.ar    
  13 C13           -1.8141     3.8838     3.6946 C.ar    
  14 C14           -2.5900     2.9462     4.3549 C.ar    
  15 C15           -3.0170     1.8099     3.6890 C.ar    
  16 C16           -2.6728     1.6153     2.3647 C.ar    
  17 F17           -2.9298     3.1398     5.6481 F       
  18 H18            0.3920    -0.3702     0.9518 H       
  19 H19           -1.0081    -0.3831    -0.1529 H       
  20 H20            1.0231    -1.5553    -1.0945 H       
  21 H21            0.4625    -0.1944    -2.0963 H       
  22 H22            3.1216     2.0644    -1.0951 H       
  23 H23            1.6619     1.8745    -2.0966 H       
  24 H24            1.0953     3.2449    -0.1535 H       
  25 H25            1.7799     2.0238     0.9514 H       
  26 H26            2.8032    -0.2140    -2.9947 H       
  27 H27            4.1428     0.1044    -1.8667 H       
  28 H28            3.2890    -1.4566    -1.8165 H       
  29 H29           -0.8612     4.4156     1.8568 H       
  30 H30           -1.4801     4.7704     4.2131 H       
  31 H31           -3.6222     1.0778     4.2030 H       
  32 H32           -3.0092     0.7310     1.8439 H       
@<TRIPOS>BOND
   1    1    2 1
   2    1    6 1
   3    1    8 am
   4    2    3 1
   5    2   18 1
   6    2   19 1
   7    3    4 1
   8    3   20 1
   9    3   21 1
  10    4    5 1
  11    4    7 1
  12    5    6 1
  13    5   22 1
  14    5   23 1
  15    6   24 1
  16    6   25 1
  17    7   26 1
  18    7   27 1
  19    7   28 1
  20    8    9 2
  21    8   10 2
  22    8   11 1
  23   11   12 ar
  24   11   16 ar
  25   12   13 ar
  26   12   29 1
  27   13   14 ar
  28   13   30 1
  29   14   15 ar
  30   14   17 1
  31   15   16 ar
  32   15   31 1
  33   16   32 1

#	End of record

