#	Name: ASD01209393
#	Creating user name:	WinNT
#	Creation time:	15. 06. 2019 19:11

#	Modifying user name:	WinNT
#	Modification time:	15. 06. 2019 19:11

#	Program:	/corina/corina34_cracker 3.40 0067  02.08.2006

@<TRIPOS>MOLECULE
ASD01209393
  34   35    0    0    0
SMALL
NO_CHARGES


@<TRIPOS>ATOM
   1 C1             0.6918     1.4751    -1.4466 C.2     
   2 C2             0.6431    -0.0278    -1.3468 C.3     
   3 O3             1.3899     2.1085    -0.6908 O.2     
   4 O4            -0.0362     2.1097    -2.3789 O.3     
   5 S5             1.7327    -0.5803    -0.0059 S.3     
   6 N6             2.5920    -3.1051    -0.4215 N.am    
   7 C7             1.4198    -2.3657     0.0648 C.3     
   8 C8             1.2210    -2.8037     1.4972 C.2     
   9 C9             2.1768    -3.6861     1.7703 C.2     
  10 C10            3.0274    -3.8779     0.5913 C.2     
  11 C11            3.1756    -3.0220    -1.7626 C.3     
  12 C12            4.2217    -1.9375    -1.7889 C.2     
  13 C13            5.5159    -2.1107    -1.5164 C.2     
  14 C14            6.2890    -0.9660    -1.6054 C.2     
  15 C15            5.6227     0.1369    -1.9501 C.2     
  16 S16            3.9241    -0.2512    -2.1908 S.3     
  17 O17            3.9852    -4.6254     0.5363 O.2     
  18 C18            2.3587    -4.3850     3.0930 C.3     
  19 C19            0.1435    -2.3296     2.4381 C.3     
  20 H20           -0.3787    -0.3452    -1.1387 H       
  21 H21            0.9749    -0.4654    -2.2883 H       
  22 H22            0.0277     3.0743    -2.4042 H       
  23 H23            0.5427    -2.6171    -0.5316 H       
  24 H24            3.6353    -3.9765    -2.0187 H       
  25 H25            2.3935    -2.7899    -2.4855 H       
  26 H26            5.9292    -3.0713    -1.2465 H       
  27 H27            7.3512    -0.9658    -1.4102 H       
  28 H28            6.0599     1.1175    -2.0671 H       
  29 H29            1.7904    -5.3151     3.0937 H       
  30 H30            3.4154    -4.6047     3.2456 H       
  31 H31            2.0019    -3.7406     3.8965 H       
  32 H32           -0.7571    -2.9251     2.2888 H       
  33 H33            0.4855    -2.4397     3.4672 H       
  34 H34           -0.0772    -1.2809     2.2389 H       
@<TRIPOS>BOND
   1    1    2 1
   2    1    3 2
   3    1    4 1
   4    2    5 1
   5    2   20 1
   6    2   21 1
   7    4   22 1
   8    5    7 1
   9    6    7 1
  10    6   10 am
  11    6   11 1
  12    7    8 1
  13    7   23 1
  14    8    9 2
  15    8   19 1
  16    9   10 1
  17    9   18 1
  18   10   17 2
  19   11   12 1
  20   11   24 1
  21   11   25 1
  22   12   13 2
  23   12   16 1
  24   13   14 1
  25   13   26 1
  26   14   15 2
  27   14   27 1
  28   15   16 1
  29   15   28 1
  30   18   29 1
  31   18   30 1
  32   18   31 1
  33   19   32 1
  34   19   33 1
  35   19   34 1

#	End of record

