#	Name: ASD03091877
#	Creating user name:	WinNT
#	Creation time:	15. 06. 2019 20:31

#	Modifying user name:	WinNT
#	Modification time:	15. 06. 2019 20:31

#	Program:	/corina/corina34_cracker 3.40 0067  02.08.2006

@<TRIPOS>MOLECULE
ASD03091877
  47   51    0    0    0
SMALL
NO_CHARGES


@<TRIPOS>ATOM
   1 C1            -0.0089     1.3849    -0.2097 C.ar    
   2 C2             0.0021    -0.0041     0.0020 C.ar    
   3 C3             1.1862    -0.6459     0.1997 C.ar    
   4 C4             2.3909     0.0540     0.1961 C.ar    
   5 C5             2.4189     1.4000    -0.0053 C.ar    
   6 C6             1.2168     2.0968    -0.2139 C.ar    
   7 C7             1.2058     3.4861    -0.4263 C.ar    
   8 C8             0.0221     4.1276    -0.6244 C.ar    
   9 C9            -1.1831     3.4276    -0.6201 C.ar    
  10 C10           -1.2109     2.0813    -0.4231 C.ar    
  11 C11           -1.2903    -0.7792     0.0106 C.3     
  12 C12           -1.0827    -2.0762     2.1947 C.3     
  13 C13           -0.8087    -3.2825     1.3619 C.ar    
  14 C14           -0.8252    -3.2315    -0.0238 C.ar    
  15 N15           -1.0786    -2.0325    -0.6791 N.pl3   
  16 C16           -0.2871    -5.6260     1.2500 C.ar    
  17 C17           -0.3160    -5.5759    -0.1314 C.ar    
  18 C18           -0.5839    -4.3809    -0.7683 C.ar    
  19 C19           -0.5325    -4.4875     1.9912 C.ar    
  20 C20            0.1782    -1.4941     2.7810 C.2     
  21 C21           -1.7529    -0.9268     1.4451 C.3     
  22 C22           -1.2194     0.2906     2.2516 C.3     
  23 C23            0.1008    -0.1874     2.8151 C.2     
  24 S24            0.0630    -7.1475     2.0668 S.o2    
  25 N25            1.7040    -7.2263     2.2742 N.am    
  26 O26           -0.5013    -7.0441     3.3669 O.2     
  27 O27           -0.2760    -8.1810     1.1524 O.2     
  28 H28           -1.7284    -2.3684     3.0228 H       
  29 H29           -2.8388    -1.0041     1.4989 H       
  30 H30           -2.0391    -0.2073    -0.5374 H       
  31 H31            1.1918    -1.7136     0.3622 H       
  32 H32            3.3164    -0.4793     0.3558 H       
  33 H33            3.3602     1.9295    -0.0048 H       
  34 H34            2.1319     4.0417    -0.4319 H       
  35 H35            0.0165     5.1953    -0.7870 H       
  36 H36           -2.1086     3.9609    -0.7798 H       
  37 H37           -2.1519     1.5514    -0.4269 H       
  38 H38           -1.1157    -2.0365    -1.6484 H       
  39 H39           -0.1289    -6.4684    -0.7101 H       
  40 H40           -0.6065    -4.3387    -1.8473 H       
  41 H41           -0.5090    -4.5353     3.0699 H       
  42 H42            1.0237    -2.0718     3.1240 H       
  43 H43           -1.0660     1.1462     1.5939 H       
  44 H44           -1.9079     0.5459     3.0571 H       
  45 H45            0.8756     0.4622     3.1946 H       
  46 H46            2.0747    -7.7053     3.0319 H       
  47 H47            2.2946    -6.7935     1.6380 H       
@<TRIPOS>BOND
   1    1    2 ar
   2    1    6 ar
   3    1   10 ar
   4    2    3 ar
   5    2   11 1
   6    3    4 ar
   7    3   31 1
   8    4    5 ar
   9    4   32 1
  10    5    6 ar
  11    5   33 1
  12    6    7 ar
  13    7    8 ar
  14    7   34 1
  15    8    9 ar
  16    8   35 1
  17    9   10 ar
  18    9   36 1
  19   10   37 1
  20   11   21 1
  21   11   15 1
  22   11   30 1
  23   12   13 1
  24   12   21 1
  25   12   28 1
  26   12   20 1
  27   13   19 ar
  28   13   14 ar
  29   14   15 1
  30   14   18 ar
  31   15   38 1
  32   16   17 ar
  33   16   19 ar
  34   16   24 1
  35   17   18 ar
  36   17   39 1
  37   18   40 1
  38   19   41 1
  39   20   23 2
  40   20   42 1
  41   21   22 1
  42   21   29 1
  43   22   23 1
  44   22   43 1
  45   22   44 1
  46   23   45 1
  47   24   25 am
  48   24   26 2
  49   24   27 2
  50   25   46 1
  51   25   47 1

#	End of record

