#	Name: ASD05740151
#	Creating user name:	WinNT
#	Creation time:	15. 06. 2019 21:02

#	Modifying user name:	WinNT
#	Modification time:	15. 06. 2019 21:02

#	Program:	/corina/corina34_cracker 3.40 0067  02.08.2006

@<TRIPOS>MOLECULE
ASD05740151
  61   65    0    0    0
SMALL
NO_CHARGES


@<TRIPOS>ATOM
   1 C1            -2.9058    -1.9535    -1.9756 C.3     
   2 C2            -2.0272    -0.8697    -1.3467 C.3     
   3 N3            -1.4307    -1.3803    -0.1099 N.pl3   
   4 C4            -2.1440    -1.3102     1.0919 C.ar    
   5 C5            -1.5785    -1.7943     2.2644 C.ar    
   6 C6            -2.2824    -1.7251     3.4501 C.ar    
   7 C7            -3.5560    -1.1719     3.4704 C.ar    
   8 C8            -4.1217    -0.6883     2.2980 C.ar    
   9 C9            -3.4152    -0.7514     1.1133 C.ar    
  10 N10           -4.2703    -1.1022     4.6733 N.pl3   
  11 C11           -3.6026    -0.8741     5.8607 C.ar    
  12 N12           -2.3009    -0.6109     5.8216 N.ar    
  13 N13           -4.2856    -0.9207     6.9951 N.ar    
  14 C14           -3.6766    -0.7066     8.1542 C.ar    
  15 C15           -2.2917    -0.4294     8.1519 C.ar    
  16 C16           -1.6150    -0.3854     6.9277 C.ar    
  17 N17           -4.3561    -0.7477     9.3442 N.am    
  18 C18           -3.7229    -0.5278    10.5101 C.2     
  19 C19           -2.3428    -0.2465    10.5646 C.2     
  20 C20           -1.6109    -0.1922     9.4211 C.2     
  21 C21           -5.7927    -1.0348     9.3457 C.3     
  22 O22           -4.3601    -0.5725    11.5481 O.2     
  23 C23           -7.2846    -3.0425     9.2570 C.ar    
  24 C24           -6.0069    -2.5264     9.3638 C.ar    
  25 C25           -7.4810    -4.4109     9.2735 C.ar    
  26 C26           -6.3997    -5.2629     9.3969 C.ar    
  27 C27           -5.1215    -4.7467     9.5034 C.ar    
  28 C28           -4.9252    -3.3787     9.4868 C.ar    
  29 C29           -8.4642    -2.1134     9.1286 C.3     
  30 F30           -9.6470    -2.8604     9.1174 F       
  31 F31           -8.4814    -1.2291    10.2126 F       
  32 F32           -8.3592    -1.3883     7.9368 F       
  33 N33           -3.4873    -1.4493    -3.2263 N.3     
  34 C34           -2.4415    -1.1185    -4.2026 C.3     
  35 C35           -1.5490    -0.0098    -3.6402 C.3     
  36 C36           -0.9173    -0.4856    -2.3291 C.3     
  37 H37           -2.3003    -2.8351    -2.1861 H       
  38 H38           -3.7057    -2.2190    -1.2844 H       
  39 H39           -2.6351     0.0069    -1.1226 H       
  40 H40           -0.5412    -1.7671    -0.1241 H       
  41 H41           -0.5883    -2.2252     2.2485 H       
  42 H42           -1.8427    -2.1015     4.3619 H       
  43 H43           -5.1125    -0.2587     2.3136 H       
  44 H44           -3.8552    -0.3752     0.2015 H       
  45 H45           -5.2338    -1.2140     4.6724 H       
  46 H46           -0.5561    -0.1765     6.8887 H       
  47 H47           -1.8657    -0.0741    11.5181 H       
  48 H48           -0.5527     0.0221     9.4505 H       
  49 H49           -6.2510    -0.5912    10.2296 H       
  50 H50           -6.2485    -0.6132     8.4498 H       
  51 H51           -8.4795    -4.8142     9.1904 H       
  52 H52           -6.5532    -6.3318     9.4106 H       
  53 H53           -4.2766    -5.4124     9.5998 H       
  54 H54           -3.9267    -2.9754     9.5703 H       
  55 H55           -4.1454    -2.1102    -3.6113 H       
  56 H56           -1.8381    -2.0040    -4.4026 H       
  57 H57           -2.9040    -0.7776    -5.1288 H       
  58 H58           -0.7635     0.2247    -4.3586 H       
  59 H59           -2.1492     0.8806    -3.4528 H       
  60 H60           -0.3150     0.3166    -1.9027 H       
  61 H61           -0.2859    -1.3529    -2.5226 H       
@<TRIPOS>BOND
   1    1    2 1
   2    1   33 1
   3    1   37 1
   4    1   38 1
   5    2    3 1
   6    2   36 1
   7    2   39 1
   8    3    4 1
   9    3   40 1
  10    4    5 ar
  11    4    9 ar
  12    5    6 ar
  13    5   41 1
  14    6    7 ar
  15    6   42 1
  16    7    8 ar
  17    7   10 1
  18    8    9 ar
  19    8   43 1
  20    9   44 1
  21   10   11 1
  22   10   45 1
  23   11   12 ar
  24   11   13 ar
  25   12   16 ar
  26   13   14 ar
  27   14   15 ar
  28   14   17 1
  29   15   16 ar
  30   15   20 1
  31   16   46 1
  32   17   18 am
  33   17   21 1
  34   18   19 1
  35   18   22 2
  36   19   20 2
  37   19   47 1
  38   20   48 1
  39   21   24 1
  40   21   49 1
  41   21   50 1
  42   23   24 ar
  43   23   25 ar
  44   23   29 1
  45   24   28 ar
  46   25   26 ar
  47   25   51 1
  48   26   27 ar
  49   26   52 1
  50   27   28 ar
  51   27   53 1
  52   28   54 1
  53   29   30 1
  54   29   31 1
  55   29   32 1
  56   33   34 1
  57   33   55 1
  58   34   35 1
  59   34   56 1
  60   34   57 1
  61   35   36 1
  62   35   58 1
  63   35   59 1
  64   36   60 1
  65   36   61 1

#	End of record

