#	Name: ASD02560331
#	Creating user name:	WinNT
#	Creation time:	15. 06. 2019 20:25

#	Modifying user name:	WinNT
#	Modification time:	15. 06. 2019 20:25

#	Program:	/corina/corina34_cracker 3.40 0067  02.08.2006

@<TRIPOS>MOLECULE
ASD02560331
  34   36    0    0    0
SMALL
NO_CHARGES


@<TRIPOS>ATOM
   1 C1            -0.0116     1.3451     0.0617 C.2     
   2 C2            -0.0103     0.0039    -0.1115 C.2     
   3 C3            -1.3203    -0.4584     0.0945 C.2     
   4 N4            -2.0759     0.5757     0.3811 N.2     
   5 N5            -1.2701     1.7214     0.3715 N.pl3   
   6 N6            -1.7458    -1.7895     0.0091 N.pl3   
   7 C7             1.1818     2.2569    -0.0627 C.3     
   8 C8             1.3721     2.6410    -1.5075 C.ar    
   9 C9             0.7493     3.7686    -2.0115 C.ar    
  10 C10            0.9247     4.1210    -3.3379 C.ar    
  11 C11            1.7222     3.3465    -4.1593 C.ar    
  12 C12            2.3444     2.2194    -3.6564 C.ar    
  13 C13            2.1743     1.8692    -2.3287 C.ar    
  14 C14           -3.1039    -2.0978     0.1259 C.ar    
  15 Cl15          -0.2528     4.7411    -0.9801 Cl      
  16 Cl16           2.9564     0.4539    -1.6971 Cl      
  17 C17           -4.0637    -1.1755    -0.2715 C.ar    
  18 C18           -3.4967    -3.3296     0.6343 C.ar    
  19 C19           -4.8394    -3.6317     0.7481 C.ar    
  20 C20           -5.7933    -2.7089     0.3563 C.ar    
  21 C21           -5.4049    -1.4831    -0.1554 C.ar    
  22 Cl22          -7.4803    -3.0922     0.5008 Cl      
  23 H23            0.8461    -0.6038    -0.3639 H       
  24 H24           -1.5662     2.6278     0.5498 H       
  25 H25           -1.0979    -2.4977    -0.1311 H       
  26 H26            1.0169     3.1546     0.5332 H       
  27 H27            2.0723     1.7409     0.2964 H       
  28 H28            0.4382     5.0012    -3.7316 H       
  29 H29            1.8588     3.6220    -5.1946 H       
  30 H30            2.9668     1.6142    -4.2989 H       
  31 H31           -3.7612    -0.2186    -0.6706 H       
  32 H32           -2.7526    -4.0503     0.9399 H       
  33 H33           -5.1453    -4.5893     1.1429 H       
  34 H34           -6.1515    -0.7647    -0.4601 H       
@<TRIPOS>BOND
   1    1    2 2
   2    1    7 1
   3    1    5 1
   4    2    3 1
   5    2   23 1
   6    3    4 2
   7    3    6 1
   8    4    5 1
   9    5   24 1
  10    6   14 1
  11    6   25 1
  12    7    8 1
  13    7   26 1
  14    7   27 1
  15    8    9 ar
  16    8   13 ar
  17    9   10 ar
  18    9   15 1
  19   10   11 ar
  20   10   28 1
  21   11   12 ar
  22   11   29 1
  23   12   13 ar
  24   12   30 1
  25   13   16 1
  26   14   18 ar
  27   14   17 ar
  28   17   21 ar
  29   17   31 1
  30   18   19 ar
  31   18   32 1
  32   19   20 ar
  33   19   33 1
  34   20   21 ar
  35   20   22 1
  36   21   34 1

#	End of record

