#	Name: ASD04590567
#	Creating user name:	WinNT
#	Creation time:	15. 06. 2019 20:51

#	Modifying user name:	WinNT
#	Modification time:	15. 06. 2019 20:51

#	Program:	/corina/corina34_cracker 3.40 0067  02.08.2006

@<TRIPOS>MOLECULE
ASD04590567
  58   63    0    0    0
SMALL
NO_CHARGES


@<TRIPOS>ATOM
   1 N1             2.2756     1.4505    -0.0342 N.ar    
   2 C2             2.4057     0.1310    -0.0511 C.ar    
   3 C3             1.2903    -0.6756    -0.0332 C.ar    
   4 C4             0.0258    -0.0949    -0.0046 C.ar    
   5 C5            -0.0735     1.2832     0.0094 C.ar    
   6 C6             1.0936     2.0401    -0.0051 C.ar    
   7 N7             1.0155     3.4298     0.0112 N.pl3   
   8 C8             2.1713     4.1875     0.1089 C.ar    
   9 N9             2.0813     5.5042     0.0145 N.ar    
  10 C10            3.1681     6.2651     0.1033 C.ar    
  11 C11            4.4141     5.6364     0.2998 C.ar    
  12 C12            4.4589     4.2489     0.3929 C.ar    
  13 N13            3.3288     3.5677     0.2992 N.ar    
  14 N14            3.3714     7.6216     0.0433 N.pl3   
  15 C15            4.7154     7.9163     0.1939 C.ar    
  16 C16            5.4162     6.7082     0.3583 C.ar    
  17 C17            5.4330     9.1053     0.2092 C.ar    
  18 N18            6.7400     9.0972     0.3737 N.ar    
  19 C19            7.4280     7.9800     0.5308 C.ar    
  20 C20            6.7993     6.7530     0.5299 C.ar    
  21 C21            2.3146     8.6169    -0.1533 C.3     
  22 C22            1.2993     8.5148     0.9867 C.3     
  23 C23            0.1956     9.5543     0.7814 C.3     
  24 C24           -0.5075     9.2950    -0.5525 C.3     
  25 C25            0.5078     9.3972    -1.6925 C.3     
  26 C26            1.6115     8.3577    -1.4872 C.3     
  27 C27           -1.6112    10.3346    -0.7578 C.3     
  28 C28            3.7975    -0.4460    -0.0970 C.3     
  29 N29            3.7827    -1.8553     0.3065 N.3     
  30 C30            2.7931    -2.6031    -0.4852 C.3     
  31 C31            1.3939    -2.1781    -0.0381 C.3     
  32 H32           -0.8616    -0.7103     0.0060 H       
  33 H33           -1.0402     1.7643     0.0309 H       
  34 H34            0.1518     3.8678    -0.0458 H       
  35 H35            5.3984     3.7378     0.5431 H       
  36 H36            4.9149    10.0448     0.0847 H       
  37 H37            8.4989     8.0289     0.6618 H       
  38 H38            7.3675     5.8436     0.6585 H       
  39 H39            2.7525     9.6151    -0.1614 H       
  40 H40            0.8613     7.5167     0.9948 H       
  41 H41            1.8002     8.6995     1.9370 H       
  42 H42           -0.5277     9.4815     1.5935 H       
  43 H43            0.6336    10.5524     0.7733 H       
  44 H44           -0.9455     8.2969    -0.5444 H       
  45 H45            0.0069     9.2125    -2.6428 H       
  46 H46            0.9458    10.3953    -1.7006 H       
  47 H47            2.3348     8.4305    -2.2994 H       
  48 H48            1.1735     7.3596    -1.4791 H       
  49 H49           -1.1732    11.3327    -0.7659 H       
  50 H50           -2.1121    10.1499    -1.7081 H       
  51 H51           -2.3345    10.2618     0.0543 H       
  52 H52            4.1866    -0.3665    -1.1121 H       
  53 H53            4.4421     0.1152     0.5797 H       
  54 H54            4.7003    -2.2660     0.2195 H       
  55 H55            2.9240    -2.3768    -1.5434 H       
  56 H56            2.9222    -3.6724    -0.3175 H       
  57 H57            1.2040    -2.5573     0.9660 H       
  58 H58            0.6540    -2.5896    -0.7246 H       
@<TRIPOS>BOND
   1    1    2 ar
   2    1    6 ar
   3    2    3 ar
   4    2   28 1
   5    3    4 ar
   6    3   31 1
   7    4    5 ar
   8    4   32 1
   9    5    6 ar
  10    5   33 1
  11    6    7 1
  12    7    8 1
  13    7   34 1
  14    8    9 ar
  15    8   13 ar
  16    9   10 ar
  17   10   11 ar
  18   10   14 1
  19   11   12 ar
  20   11   16 1
  21   12   13 ar
  22   12   35 1
  23   14   15 1
  24   14   21 1
  25   15   16 ar
  26   15   17 ar
  27   16   20 ar
  28   17   18 ar
  29   17   36 1
  30   18   19 ar
  31   19   20 ar
  32   19   37 1
  33   20   38 1
  34   21   22 1
  35   21   26 1
  36   21   39 1
  37   22   23 1
  38   22   40 1
  39   22   41 1
  40   23   24 1
  41   23   42 1
  42   23   43 1
  43   24   25 1
  44   24   27 1
  45   24   44 1
  46   25   26 1
  47   25   45 1
  48   25   46 1
  49   26   47 1
  50   26   48 1
  51   27   49 1
  52   27   50 1
  53   27   51 1
  54   28   29 1
  55   28   52 1
  56   28   53 1
  57   29   30 1
  58   29   54 1
  59   30   31 1
  60   30   55 1
  61   30   56 1
  62   31   57 1
  63   31   58 1

#	End of record

