#	Name: ASD01884908
#	Creating user name:	WinNT
#	Creation time:	15. 06. 2019 19:49

#	Modifying user name:	WinNT
#	Modification time:	15. 06. 2019 19:49

#	Program:	/corina/corina34_cracker 3.40 0067  02.08.2006

@<TRIPOS>MOLECULE
ASD01884908
  50   55    0    0    0
SMALL
NO_CHARGES


@<TRIPOS>ATOM
   1 C1            -0.0208     1.3704    -0.0105 C.ar    
   2 C2             0.0002    -0.0105    -0.0223 C.ar    
   3 C3             1.2187    -0.6894    -0.0313 C.ar    
   4 C4             2.4142     0.0280    -0.0366 C.ar    
   5 C5             2.3799     1.4128    -0.0330 C.ar    
   6 C6             1.1669     2.0763    -0.0077 C.ar    
   7 C7             1.2426    -2.1712    -0.0349 C.2     
   8 C8             0.7428    -2.8751    -1.1152 C.2     
   9 C9             1.7827    -2.8803     1.0655 C.2     
  10 C10            1.8039    -4.2261     1.0604 C.2     
  11 N11            1.3080    -4.9301     0.0005 N.pl3   
  12 C12            0.7795    -4.2809    -1.0888 C.2     
  13 Cl13           0.0797    -2.0364    -2.4830 Cl      
  14 C14            1.2014    -6.2595    -0.2715 C.2     
  15 N15            0.6395    -6.3775    -1.4471 N.2     
  16 N16            0.3865    -5.2161    -1.9397 N.2     
  17 O17            3.5398     2.1250    -0.0809 O.3     
  18 C18            3.7742     2.8334    -1.3037 C.3     
  19 C19            3.1012     4.1887    -1.2776 C.3     
  20 N20            1.6432     4.1169    -1.2299 N.3     
  21 C21            1.1473     3.5915     0.0470 C.3     
  22 C22            1.0711     5.3589    -1.5163 C.ar    
  23 C23           -0.3075     5.4933    -1.6175 C.ar    
  24 N24           -0.8507     6.6635    -1.8877 N.ar    
  25 C25           -0.1177     7.7440    -2.0712 C.ar    
  26 C26            1.2614     7.6900    -1.9869 C.ar    
  27 C27            1.8748     6.4821    -1.6989 C.ar    
  28 C28            1.6494    -7.3896     0.6191 C.3     
  29 C29            0.5863    -8.3873     1.0833 C.3     
  30 C30            1.6202    -8.8035     0.0350 C.3     
  31 H31           -0.9635     1.8973    -0.0080 H       
  32 H32           -0.9267    -0.5647    -0.0242 H       
  33 H33            3.3605    -0.4924    -0.0431 H       
  34 H34            2.1794    -2.3392     1.9118 H       
  35 H35            2.2186    -4.7560     1.9051 H       
  36 H36            4.8472     2.9683    -1.4400 H       
  37 H37            3.3780     2.2522    -2.1364 H       
  38 H38            3.4523     4.7355    -0.4024 H       
  39 H39            3.3941     4.7407    -2.1707 H       
  40 H40            0.1272     3.9379     0.2132 H       
  41 H41            1.7890     3.9362     0.8579 H       
  42 H42           -0.9408     4.6303    -1.4739 H       
  43 H43           -0.6012     8.6845    -2.2908 H       
  44 H44            1.8533     8.5804    -2.1395 H       
  45 H45            2.9500     6.4108    -1.6270 H       
  46 H46            2.4523    -7.1491     1.3159 H       
  47 H47            0.6901    -8.8033     2.0854 H       
  48 H48           -0.4371    -8.2262     0.7445 H       
  49 H49            1.2770    -8.9162    -0.9933 H       
  50 H50            2.4041    -9.4934     0.3475 H       
@<TRIPOS>BOND
   1    1    2 ar
   2    1    6 ar
   3    1   31 1
   4    2    3 ar
   5    2   32 1
   6    3    4 ar
   7    3    7 1
   8    4    5 ar
   9    4   33 1
  10    5    6 ar
  11    5   17 1
  12    6   21 1
  13    7    8 2
  14    7    9 1
  15    8   13 1
  16    8   12 1
  17    9   10 2
  18    9   34 1
  19   10   11 1
  20   10   35 1
  21   11   12 1
  22   11   14 1
  23   12   16 2
  24   14   15 2
  25   14   28 1
  26   15   16 1
  27   17   18 1
  28   18   19 1
  29   18   36 1
  30   18   37 1
  31   19   20 1
  32   19   38 1
  33   19   39 1
  34   20   21 1
  35   20   22 1
  36   21   40 1
  37   21   41 1
  38   22   23 ar
  39   22   27 ar
  40   23   24 ar
  41   23   42 1
  42   24   25 ar
  43   25   26 ar
  44   25   43 1
  45   26   27 ar
  46   26   44 1
  47   27   45 1
  48   28   29 1
  49   28   30 1
  50   28   46 1
  51   29   30 1
  52   29   47 1
  53   29   48 1
  54   30   49 1
  55   30   50 1

#	End of record

