#	Name: ASD01812704
#	Creating user name:	WinNT
#	Creation time:	15. 06. 2019 19:29

#	Modifying user name:	WinNT
#	Modification time:	15. 06. 2019 19:29

#	Program:	/corina/corina34_cracker 3.40 0067  02.08.2006

@<TRIPOS>MOLECULE
ASD01812704
  58   62    0    0    0
SMALL
NO_CHARGES


@<TRIPOS>ATOM
   1 C1            -0.0175     1.3771     0.0433 C.ar    
   2 C2             0.0005    -0.0033     0.0458 C.ar    
   3 C3             1.2066    -0.6873     0.0176 C.ar    
   4 C4             2.3919     0.0066    -0.0135 C.ar    
   5 C5             2.3926     1.4048    -0.0170 C.ar    
   6 C6             1.1712     2.0915     0.0120 C.ar    
   7 C7             3.8385    -0.4195    -0.0487 C.3     
   8 N8             4.6290     0.8166    -0.0717 N.am    
   9 C9             3.7900     1.8666    -0.0532 C.2     
  10 C10            6.0915     0.8935    -0.1082 C.3     
  11 C11            6.5577     0.9161    -1.5410 C.ar    
  12 C12            6.7079     2.1240    -2.1979 C.ar    
  13 C13            7.1346     2.1504    -3.5103 C.ar    
  14 C14            7.4147     0.9576    -4.1731 C.ar    
  15 C15            7.2622    -0.2562    -3.5067 C.ar    
  16 C16            6.8395    -0.2709    -2.1928 C.ar    
  17 O17            1.1515     3.4479     0.0091 O.3     
  18 C18           -0.1276     4.0779    -0.0868 C.3     
  19 O19            4.1360     3.0321    -0.0644 O.2     
  20 C20            7.8736     0.9798    -5.5849 C.2     
  21 C21            7.2880     1.6601    -6.6124 C.2     
  22 C22            8.9961     0.3073    -6.1059 C.2     
  23 N23            9.0709     0.5716    -7.3834 N.2     
  24 N24            8.0127     1.4227    -7.7243 N.pl3   
  25 C25            9.9457    -0.5650    -5.3259 C.3     
  26 C26            7.7374     1.9586    -9.0597 C.3     
  27 C27            0.0118     5.4953    -0.6795 C.3     
  28 C28           -0.9987     6.3847     0.0658 C.3     
  29 C29           -1.7170     5.4768     1.0854 C.3     
  30 C30           -0.7232     4.3128     1.3236 C.3     
  31 O31           -0.2914     5.4740    -2.0758 O.3     
  32 H32           -0.9607     1.9028     0.0612 H       
  33 H33           -0.9289    -0.5530     0.0702 H       
  34 H34            1.2141    -1.7673     0.0205 H       
  35 H35            4.0793    -1.0019     0.8406 H       
  36 H36            4.0345    -1.0064    -0.9461 H       
  37 H37            6.4201     1.8027     0.3952 H       
  38 H38            6.5137     0.0252     0.3977 H       
  39 H39            6.4905     3.0482    -1.6831 H       
  40 H40            7.2509     3.0941    -4.0225 H       
  41 H41            7.4780    -1.1838    -4.0160 H       
  42 H42            6.7245    -1.2112    -1.6740 H       
  43 H43           -0.8040     3.4756    -0.6932 H       
  44 H44            6.4038     2.2769    -6.5470 H       
  45 H45            9.5890    -1.5949    -5.3416 H       
  46 H46           10.9369    -0.5169    -5.7766 H       
  47 H47            9.9978    -0.2143    -4.2952 H       
  48 H48            8.2555     2.9096    -9.1834 H       
  49 H49            8.0875     1.2534    -9.8135 H       
  50 H50            6.6644     2.1116    -9.1757 H       
  51 H51            1.0241     5.8678    -0.5224 H       
  52 H52           -0.4769     7.1889     0.5846 H       
  53 H53           -1.7204     6.8001    -0.6376 H       
  54 H54           -1.9012     6.0171     2.0139 H       
  55 H55           -2.6519     5.1011     0.6695 H       
  56 H56           -1.2468     3.4237     1.6748 H       
  57 H57            0.0552     4.6074     2.0275 H       
  58 H58           -0.2215     6.3369    -2.5066 H       
@<TRIPOS>BOND
   1    1    2 ar
   2    1    6 ar
   3    1   32 1
   4    2    3 ar
   5    2   33 1
   6    3    4 ar
   7    3   34 1
   8    4    7 1
   9    4    5 ar
  10    5    6 ar
  11    5    9 1
  12    6   17 1
  13    7    8 1
  14    7   35 1
  15    7   36 1
  16    8    9 am
  17    8   10 1
  18    9   19 2
  19   10   11 1
  20   10   37 1
  21   10   38 1
  22   11   12 ar
  23   11   16 ar
  24   12   13 ar
  25   12   39 1
  26   13   14 ar
  27   13   40 1
  28   14   15 ar
  29   14   20 1
  30   15   16 ar
  31   15   41 1
  32   16   42 1
  33   17   18 1
  34   18   27 1
  35   18   30 1
  36   18   43 1
  37   20   22 1
  38   20   21 2
  39   21   24 1
  40   21   44 1
  41   22   23 2
  42   22   25 1
  43   23   24 1
  44   24   26 1
  45   25   45 1
  46   25   46 1
  47   25   47 1
  48   26   48 1
  49   26   49 1
  50   26   50 1
  51   27   28 1
  52   27   31 1
  53   27   51 1
  54   28   29 1
  55   28   52 1
  56   28   53 1
  57   29   30 1
  58   29   54 1
  59   29   55 1
  60   30   56 1
  61   30   57 1
  62   31   58 1

#	End of record

