#	Name: ASD02030750
#	Creating user name:	WinNT
#	Creation time:	15. 06. 2019 20:16

#	Modifying user name:	WinNT
#	Modification time:	15. 06. 2019 20:16

#	Program:	/corina/corina34_cracker 3.40 0067  02.08.2006

@<TRIPOS>MOLECULE
ASD02030750
  41   43    0    0    0
SMALL
NO_CHARGES


@<TRIPOS>ATOM
   1 N1            -0.0169     1.3957     0.0097 N.2     
   2 N2             0.0021    -0.0041     0.0020 N.am    
   3 C3             1.1646    -0.6797    -0.0123 C.2     
   4 N4             2.3448    -0.0325    -0.0200 N.am    
   5 C5             2.3757     1.3164    -0.0131 C.2     
   6 C6             1.1074     2.0610     0.0026 C.2     
   7 O7             1.1494    -1.8958    -0.0178 O.2     
   8 O8             3.4386     1.9089    -0.0192 O.2     
   9 C9            -1.2627    -0.7434     0.0101 C.3     
  10 C10           -1.6892    -1.0085     1.4554 C.3     
  11 C11           -2.9902    -1.7690     1.4637 C.ar    
  12 C12           -2.9810    -3.1518     1.4562 C.ar    
  13 C13           -4.1714    -3.8519     1.4638 C.ar    
  14 C14           -5.3790    -3.1654     1.4790 C.ar    
  15 C15           -5.3846    -1.7763     1.4865 C.ar    
  16 C16           -4.1904    -1.0825     1.4845 C.ar    
  17 O17           -9.0564    -4.6810     2.5451 O.3     
  18 C18           -9.0296    -3.7623     1.4494 C.3     
  19 C19           -7.7322    -2.9512     1.5022 C.3     
  20 N20           -6.5848    -3.8702     1.4863 N.3     
  21 C21           -6.6453    -4.7989     2.6243 C.3     
  22 C22           -7.9536    -5.5915     2.5602 C.3     
  23 O23            1.1051     3.4197     0.0094 O.3     
  24 H24            3.1737    -0.5362    -0.0303 H       
  25 H25           -2.0303    -0.1556    -0.4933 H       
  26 H26           -1.1322    -1.6923    -0.5101 H       
  27 H27           -0.9215    -1.5962     1.9587 H       
  28 H28           -1.8197    -0.0596     1.9756 H       
  29 H29           -2.0418    -3.6849     1.4440 H       
  30 H30           -4.1636    -4.9318     1.4576 H       
  31 H31           -6.3217    -1.2395     1.4984 H       
  32 H32           -4.1940    -0.0026     1.4952 H       
  33 H33           -9.0759    -4.3141     0.5106 H       
  34 H34           -9.8833    -3.0882     1.5186 H       
  35 H35           -7.6809    -2.2899     0.6373 H       
  36 H36           -7.7107    -2.3581     2.4165 H       
  37 H37           -5.8007    -5.4864     2.5784 H       
  38 H38           -6.6065    -4.2353     3.5565 H       
  39 H39           -8.0292    -6.2403     3.4328 H       
  40 H40           -7.9686    -6.1965     1.6537 H       
  41 H41            0.2211     3.8114     0.0197 H       
@<TRIPOS>BOND
   1    1    2 1
   2    1    6 2
   3    2    3 am
   4    2    9 1
   5    3    4 am
   6    3    7 2
   7    4    5 am
   8    4   24 1
   9    5    6 1
  10    5    8 2
  11    6   23 1
  12    9   10 1
  13    9   25 1
  14    9   26 1
  15   10   11 1
  16   10   27 1
  17   10   28 1
  18   11   12 ar
  19   11   16 ar
  20   12   13 ar
  21   12   29 1
  22   13   14 ar
  23   13   30 1
  24   14   15 ar
  25   14   20 1
  26   15   16 ar
  27   15   31 1
  28   16   32 1
  29   17   18 1
  30   17   22 1
  31   18   19 1
  32   18   33 1
  33   18   34 1
  34   19   20 1
  35   19   35 1
  36   19   36 1
  37   20   21 1
  38   21   22 1
  39   21   37 1
  40   21   38 1
  41   22   39 1
  42   22   40 1
  43   23   41 1

#	End of record

