#	Name: ASD02408450
#	Creating user name:	WinNT
#	Creation time:	15. 06. 2019 20:21

#	Modifying user name:	WinNT
#	Modification time:	15. 06. 2019 20:21

#	Program:	/corina/corina34_cracker 3.40 0067  02.08.2006

@<TRIPOS>MOLECULE
ASD02408450
  42   44    0    0    0
SMALL
NO_CHARGES


@<TRIPOS>ATOM
   1 C1            -0.0170     1.3996     0.0097 C.2     
   2 C2             0.0021    -0.0041     0.0020 C.2     
   3 N3            -1.2942    -0.4096     0.0118 N.pl3   
   4 N4            -2.1111     0.7280     0.0254 N.2     
   5 C5            -1.3664     1.7991     0.0192 C.2     
   6 C6            -1.7585    -1.7991     0.0078 C.3     
   7 C7            -2.5993    -2.0774     1.2661 C.3     
   8 C8            -4.0051    -2.4818     0.7762 C.3     
   9 C9            -3.7699    -3.0057    -0.6623 C.3     
  10 C10           -2.6827    -2.0440    -1.2028 C.3     
  11 C11            1.2638     2.1063     0.0013 C.2     
  12 N12            2.3912     1.3572    -0.0135 N.am    
  13 N13            1.1828    -0.6424    -0.0123 N.2     
  14 O14            1.3139     3.3236     0.0070 O.2     
  15 C15            2.3124     0.0027    -0.0200 C.2     
  16 C16            3.5931    -0.7914    -0.0370 C.3     
  17 C17            3.2664    -2.2861    -0.0418 C.3     
  18 C18            4.5667    -3.0923    -0.0591 C.3     
  19 C19            5.3343    -2.8500     1.2420 C.3     
  20 C20            4.2416    -4.5817    -0.1896 C.3     
  21 H21           -1.7241     2.8181     0.0267 H       
  22 H22           -0.9059    -2.4772    -0.0291 H       
  23 H23           -2.1553    -2.8912     1.8394 H       
  24 H24           -2.6619    -1.1787     1.8797 H       
  25 H25           -4.4167    -3.2699     1.4067 H       
  26 H26           -4.6681    -1.6168     0.7635 H       
  27 H27           -3.4034    -4.0321    -0.6445 H       
  28 H28           -4.6816    -2.9301    -1.2549 H       
  29 H29           -3.1321    -1.1082    -1.5351 H       
  30 H30           -2.1292    -2.5126    -2.0166 H       
  31 H31            3.2590     1.7906    -0.0198 H       
  32 H32            4.1638    -0.5413    -0.9314 H       
  33 H33            4.1815    -0.5509     0.8485 H       
  34 H34            2.6957    -2.5362     0.8525 H       
  35 H35            2.6780    -2.5266    -0.9273 H       
  36 H36            5.1777    -2.7782    -0.9053 H       
  37 H37            6.2606    -3.4243     1.2297 H       
  38 H38            5.5659    -1.7889     1.3350 H       
  39 H39            4.7233    -3.1640     2.0883 H       
  40 H40            3.6947    -4.7543    -1.1166 H       
  41 H41            5.1679    -5.1560    -0.2019 H       
  42 H42            3.6306    -4.8957     0.6566 H       
@<TRIPOS>BOND
   1    1    2 2
   2    1   11 1
   3    1    5 1
   4    2    3 1
   5    2   13 1
   6    3    4 1
   7    3    6 1
   8    4    5 2
   9    5   21 1
  10    6    7 1
  11    6   10 1
  12    6   22 1
  13    7    8 1
  14    7   23 1
  15    7   24 1
  16    8    9 1
  17    8   25 1
  18    8   26 1
  19    9   10 1
  20    9   27 1
  21    9   28 1
  22   10   29 1
  23   10   30 1
  24   11   12 am
  25   11   14 2
  26   12   15 1
  27   12   31 1
  28   13   15 2
  29   15   16 1
  30   16   17 1
  31   16   32 1
  32   16   33 1
  33   17   18 1
  34   17   34 1
  35   17   35 1
  36   18   19 1
  37   18   20 1
  38   18   36 1
  39   19   37 1
  40   19   38 1
  41   19   39 1
  42   20   40 1
  43   20   41 1
  44   20   42 1

#	End of record

