#	Name: ASD01914142
#	Creating user name:	WinNT
#	Creation time:	15. 06. 2019 20:02

#	Modifying user name:	WinNT
#	Modification time:	15. 06. 2019 20:02

#	Program:	/corina/corina34_cracker 3.40 0067  02.08.2006

@<TRIPOS>MOLECULE
ASD01914142
  45   48    0    0    0
SMALL
NO_CHARGES


@<TRIPOS>ATOM
   1 C1            -2.7902    -0.0386    -1.2543 C.2     
   2 C2            -2.1648    -1.3185    -0.8615 C.2     
   3 N3            -2.7910    -2.3826    -0.3060 N.2     
   4 C4            -1.8593    -3.2849    -0.1272 C.2     
   5 O5            -0.7115    -2.7605    -0.5685 O.3     
   6 N6            -0.9010    -1.6393    -0.9905 N.2     
   7 C7            -2.0457    -4.6576     0.4661 C.3     
   8 C8            -1.6333    -5.7171    -0.5583 C.3     
   9 C9            -0.1729    -5.4989    -0.9606 C.3     
  10 C10            0.7206    -5.6473     0.2749 C.3     
  11 N11            0.2393    -4.7327     1.3191 N.am    
  12 C12           -1.1734    -4.7964     1.7178 C.3     
  13 C13            2.1638    -5.2945    -0.0906 C.3     
  14 C14            1.0777    -3.8519     1.9003 C.2     
  15 C15            0.5540    -2.8517     2.8530 C.ar    
  16 C16            1.3460    -2.4161     3.9171 C.ar    
  17 C17            0.8535    -1.4820     4.8038 C.ar    
  18 C18           -0.4258    -0.9750     4.6414 C.ar    
  19 C19           -1.2188    -1.4040     3.5851 C.ar    
  20 C20           -0.7329    -2.3343     2.6888 C.ar    
  21 O21            2.2650    -3.8806     1.6405 O.2     
  22 C22           -2.1518     1.0282    -1.8133 C.2     
  23 C23           -3.1144     2.0275    -2.0253 C.2     
  24 C24           -4.3039     1.5501    -1.5946 C.2     
  25 N25           -4.1176     0.2846    -1.1265 N.pl3   
  26 Cl26          -2.8290     3.5947    -2.7152 Cl      
  27 F27           -2.4655    -0.9065     3.4319 F       
  28 F28           -0.9034    -0.0606     5.5138 F       
  29 H29           -3.0927    -4.7989     0.7343 H       
  30 H30           -1.7449    -6.7088    -0.1200 H       
  31 H31           -2.2688    -5.6364    -1.4401 H       
  32 H32            0.1132    -6.2394    -1.7076 H       
  33 H33           -0.0557    -4.4982    -1.3763 H       
  34 H34            0.6740    -6.6738     0.6384 H       
  35 H35           -1.3949    -3.9836     2.4095 H       
  36 H36           -1.3745    -5.7535     2.1990 H       
  37 H37            2.2298    -4.2322    -0.3257 H       
  38 H38            2.8177    -5.5216     0.7514 H       
  39 H39            2.4721    -5.8784    -0.9578 H       
  40 H40            2.3431    -2.8106     4.0458 H       
  41 H41            1.4661    -1.1451     5.6269 H       
  42 H42           -1.3495    -2.6677     1.8672 H       
  43 H43           -1.0998     1.0927    -2.0492 H       
  44 H44           -5.2440     2.0809    -1.6215 H       
  45 H45           -4.8069    -0.2898    -0.7580 H       
@<TRIPOS>BOND
   1    1    2 1
   2    1   22 2
   3    1   25 1
   4    2    3 1
   5    2    6 2
   6    3    4 2
   7    4    5 1
   8    4    7 1
   9    5    6 1
  10    7    8 1
  11    7   12 1
  12    7   29 1
  13    8    9 1
  14    8   30 1
  15    8   31 1
  16    9   10 1
  17    9   32 1
  18    9   33 1
  19   10   11 1
  20   10   13 1
  21   10   34 1
  22   11   12 1
  23   11   14 am
  24   12   35 1
  25   12   36 1
  26   13   37 1
  27   13   38 1
  28   13   39 1
  29   14   15 1
  30   14   21 2
  31   15   16 ar
  32   15   20 ar
  33   16   17 ar
  34   16   40 1
  35   17   18 ar
  36   17   41 1
  37   18   19 ar
  38   18   28 1
  39   19   20 ar
  40   19   27 1
  41   20   42 1
  42   22   23 1
  43   22   43 1
  44   23   24 2
  45   23   26 1
  46   24   25 1
  47   24   44 1
  48   25   45 1

#	End of record

