#	Name: ASD01208236
#	Creating user name:	WinNT
#	Creation time:	15. 06. 2019 19:09

#	Modifying user name:	WinNT
#	Modification time:	15. 06. 2019 19:09

#	Program:	/corina/corina34_cracker 3.40 0067  02.08.2006

@<TRIPOS>MOLECULE
ASD01208236
  53   56    0    0    0
SMALL
NO_CHARGES


@<TRIPOS>ATOM
   1 C1             1.6777    -2.8627    -6.0618 C.2     
   2 C2             1.2248    -3.1460    -4.6898 C.ar    
   3 C3             2.0447    -2.8290    -3.6008 C.ar    
   4 C4             1.6164    -3.0961    -2.3187 C.ar    
   5 C5             0.3698    -3.6804    -2.1071 C.ar    
   6 C6            -0.4460    -3.9966    -3.1868 C.ar    
   7 C7            -0.0283    -3.7273    -4.4709 C.ar    
   8 O8             2.7720    -2.3496    -6.2511 O.co2   
   9 O9             0.9617    -3.1451    -7.0128 O.co2   
  10 O10           -0.0489    -3.9421    -0.8432 O.3     
  11 C11           -1.2531    -4.5511    -0.6833 C.ar    
  12 C12           -2.3614    -3.8065    -0.3040 C.ar    
  13 C13           -3.5931    -4.4233    -0.1389 C.ar    
  14 C14           -3.7218    -5.7858    -0.3522 C.ar    
  15 C15           -2.6103    -6.5384    -0.7341 C.ar    
  16 C16           -1.3741    -5.9129    -0.9046 C.ar    
  17 N17           -1.7335    -8.8400    -1.3382 N.pl3   
  18 C18           -2.7428    -7.9922    -0.9623 C.2     
  19 C19           -3.8912    -8.7192    -0.8345 C.2     
  20 C20           -3.5895   -10.0496    -1.1378 C.2     
  21 C21           -2.2484   -10.1087    -1.4481 C.2     
  22 S22           -2.1769   -12.9373    -1.9664 S.3     
  23 C23           -1.5007   -11.3161    -1.8301 C.2     
  24 N24           -0.2296   -11.3591    -2.1232 N.2     
  25 C25            0.2683   -12.5313    -2.4433 C.2     
  26 C26           -0.5928   -13.5540    -2.4317 C.2     
  27 O27           -4.6749    -3.6896     0.2330 O.3     
  28 C28           -4.4535    -2.3076     0.5213 C.3     
  29 C29           -5.5503    -1.8003     1.4597 C.3     
  30 C30           -4.4839    -1.5039    -0.7803 C.3     
  31 O31           -6.8112    -1.8493     0.7891 O.3     
  32 C32           -7.9094    -1.3943     1.5821 C.3     
  33 F33            2.4064    -2.7914    -1.2660 F       
  34 H34            3.0113    -2.3763    -3.7650 H       
  35 H35           -1.4115    -4.4502    -3.0181 H       
  36 H36           -0.6656    -3.9692    -5.3085 H       
  37 H37           -2.2646    -2.7440    -0.1365 H       
  38 H38           -4.6808    -6.2652    -0.2228 H       
  39 H39           -0.5123    -6.4908    -1.2044 H       
  40 H40           -0.8119    -8.5861    -1.5030 H       
  41 H41           -4.8595    -8.3351    -0.5493 H       
  42 H42           -4.2807   -10.8794    -1.1301 H       
  43 H43            1.3092   -12.6611    -2.7005 H       
  44 H44           -0.3580   -14.5816    -2.6671 H       
  45 H45           -3.4816    -2.1874     0.9998 H       
  46 H46           -5.5871    -2.4293     2.3491 H       
  47 H47           -5.3330    -0.7724     1.7503 H       
  48 H48           -3.7025    -1.8654    -1.4489 H       
  49 H49           -5.4558    -1.6241    -1.2589 H       
  50 H50           -4.3150    -0.4498    -0.5605 H       
  51 H51           -7.7411    -0.3580     1.8753 H       
  52 H52           -8.8296    -1.4629     1.0020 H       
  53 H53           -7.9951    -2.0149     2.4741 H       
@<TRIPOS>BOND
   1    1    2 1
   2    1    8 ar
   3    1    9 ar
   4    2    3 ar
   5    2    7 ar
   6    3    4 ar
   7    3   34 1
   8    4    5 ar
   9    4   33 1
  10    5    6 ar
  11    5   10 1
  12    6    7 ar
  13    6   35 1
  14    7   36 1
  15   10   11 1
  16   11   12 ar
  17   11   16 ar
  18   12   13 ar
  19   12   37 1
  20   13   14 ar
  21   13   27 1
  22   14   15 ar
  23   14   38 1
  24   15   16 ar
  25   15   18 1
  26   16   39 1
  27   17   18 1
  28   17   21 1
  29   17   40 1
  30   18   19 2
  31   19   20 1
  32   19   41 1
  33   20   21 2
  34   20   42 1
  35   21   23 1
  36   22   23 1
  37   22   26 1
  38   23   24 2
  39   24   25 1
  40   25   26 2
  41   25   43 1
  42   26   44 1
  43   27   28 1
  44   28   29 1
  45   28   30 1
  46   28   45 1
  47   29   31 1
  48   29   46 1
  49   29   47 1
  50   30   48 1
  51   30   49 1
  52   30   50 1
  53   31   32 1
  54   32   51 1
  55   32   52 1
  56   32   53 1

#	End of record

