#	Name: ASD01882808
#	Creating user name:	WinNT
#	Creation time:	15. 06. 2019 19:45

#	Modifying user name:	WinNT
#	Modification time:	15. 06. 2019 19:45

#	Program:	/corina/corina34_cracker 3.40 0067  02.08.2006

@<TRIPOS>MOLECULE
ASD01882808
  47   51    0    0    0
SMALL
NO_CHARGES


@<TRIPOS>ATOM
   1 C1            -0.0159     1.3220     0.0093 C.2     
   2 N2             0.0021    -0.0041     0.0020 N.2     
   3 C3             1.1523    -0.6857    -0.0126 C.2     
   4 C4             2.3835     0.0173    -0.0206 C.2     
   5 C5             2.3523     1.3664    -0.0131 C.2     
   6 N6             1.1484     2.0132     0.0019 N.pl3   
   7 O7            -1.0993     2.1290     0.0184 O.3     
   8 C8             0.8540     3.4562     0.0125 C.3     
   9 C9            -0.6831     3.5211     0.0242 C.3     
  10 O10            1.1423    -1.9071    -0.0187 O.2     
  11 C11           -1.1944     4.2379    -1.2270 C.3     
  12 O12           -2.6209     4.3119    -1.1842 O.3     
  13 C13           -3.2386     4.9234    -2.2289 C.ar    
  14 C14           -4.6216     5.0305    -2.2523 C.ar    
  15 C15           -5.2471     5.6525    -3.3154 C.ar    
  16 C16           -4.4961     6.1681    -4.3555 C.ar    
  17 C17           -3.1176     6.0622    -4.3348 C.ar    
  18 C18           -2.4869     5.4466    -3.2710 C.ar    
  19 C19           -5.1811     6.8461    -5.5140 C.3     
  20 C20           -4.7063     8.3098    -5.6348 C.3     
  21 C21           -3.5310     8.1958    -6.6286 C.3     
  22 C22           -3.8318     6.9662    -7.4585 C.ar    
  23 C23           -3.3166     6.5581    -8.6777 C.ar    
  24 C24           -3.7471     5.3796    -9.2547 C.ar    
  25 C25           -4.6955     4.6039    -8.6141 C.ar    
  26 C26           -5.2104     5.0091    -7.3984 C.ar    
  27 C27           -4.7799     6.1907    -6.8181 C.ar    
  28 H28            3.3237    -0.5140    -0.0321 H       
  29 H29            3.2727     1.9314    -0.0185 H       
  30 H30            1.2651     3.9237     0.9072 H       
  31 H31            1.2480     3.9334    -0.8848 H       
  32 H32           -1.0396     4.0220     0.9243 H       
  33 H33           -0.7793     5.2451    -1.2639 H       
  34 H34           -0.8857     3.6850    -2.1142 H       
  35 H35           -5.2087     4.6276    -1.4403 H       
  36 H36           -6.3237     5.7358    -3.3343 H       
  37 H37           -2.5332     6.4651    -5.1488 H       
  38 H38           -1.4099     5.3684    -3.2529 H       
  39 H39           -6.2631     6.8087    -5.3874 H       
  40 H40           -5.4968     8.9413    -6.0403 H       
  41 H41           -4.3638     8.6867    -4.6711 H       
  42 H42           -3.4865     9.0798    -7.2647 H       
  43 H43           -2.5916     8.0684    -6.0905 H       
  44 H44           -2.5760     7.1637    -9.1788 H       
  45 H45           -3.3437     5.0645   -10.2057 H       
  46 H46           -5.0336     3.6822    -9.0641 H       
  47 H47           -5.9512     4.4027    -6.8986 H       
@<TRIPOS>BOND
   1    1    2 2
   2    1    6 1
   3    1    7 1
   4    2    3 1
   5    3    4 1
   6    3   10 2
   7    4    5 2
   8    4   28 1
   9    5    6 1
  10    5   29 1
  11    6    8 1
  12    7    9 1
  13    8    9 1
  14    8   30 1
  15    8   31 1
  16    9   11 1
  17    9   32 1
  18   11   12 1
  19   11   33 1
  20   11   34 1
  21   12   13 1
  22   13   14 ar
  23   13   18 ar
  24   14   15 ar
  25   14   35 1
  26   15   16 ar
  27   15   36 1
  28   16   17 ar
  29   16   19 1
  30   17   18 ar
  31   17   37 1
  32   18   38 1
  33   19   20 1
  34   19   27 1
  35   19   39 1
  36   20   21 1
  37   20   40 1
  38   20   41 1
  39   21   22 1
  40   21   42 1
  41   21   43 1
  42   22   23 ar
  43   22   27 ar
  44   23   24 ar
  45   23   44 1
  46   24   25 ar
  47   24   45 1
  48   25   26 ar
  49   25   46 1
  50   26   27 ar
  51   26   47 1

#	End of record

