#	Name: ASD03090956
#	Creating user name:	WinNT
#	Creation time:	15. 06. 2019 20:29

#	Modifying user name:	WinNT
#	Modification time:	15. 06. 2019 20:29

#	Program:	/corina/corina34_cracker 3.40 0067  02.08.2006

@<TRIPOS>MOLECULE
ASD03090956
  51   53    0    0    0
SMALL
NO_CHARGES


@<TRIPOS>ATOM
   1 N1            -0.0174     1.3432    -0.0842 N.am    
   2 C2             0.0012    -0.0043    -0.0665 C.2     
   3 O3             1.0649    -0.5993    -0.0762 O.2     
   4 N4            -1.1464    -0.6880    -0.0385 N.2     
   5 S5             0.2595    -3.0387    -0.0299 S.3     
   6 C6            -1.1280    -2.0187    -0.0211 C.2     
   7 N7            -2.1987    -2.8518     0.0077 N.pl3   
   8 C8            -1.9391    -4.1884     0.0217 C.2     
   9 C9            -0.6634    -4.5510     0.0057 C.2     
  10 O10           -7.3907    -0.9282     0.0575 O.3     
  11 C11           -7.5941     0.4021     0.5459 C.3     
  12 C12           -6.5425     1.3161    -0.0975 C.3     
  13 O13           -5.2452     0.8324     0.2671 O.3     
  14 C14           -5.0372    -0.5079     0.1520 C.ar    
  15 C15           -6.1087    -1.3880     0.0493 C.ar    
  16 C16           -3.7397    -0.9949     0.1372 C.ar    
  17 C17           -3.5113    -2.3592     0.0230 C.ar    
  18 C18           -4.5831    -3.2356    -0.0767 C.ar    
  19 C19           -5.8767    -2.7506    -0.0635 C.ar    
  20 F20           -6.6821     1.2892    -1.4893 F       
  21 F21           -6.7062     2.6249     0.3687 F       
  22 F22           -8.8764     0.8411     0.1992 F       
  23 F23           -7.4482     0.4214     1.9372 F       
  24 C24           -0.1141    -5.9543     0.0163 C.3     
  25 C25            1.2409     2.0928    -0.1150 C.3     
  26 C26            0.9406     3.5930    -0.1299 C.3     
  27 C27            2.2548     4.3758    -0.1621 C.3     
  28 C28            2.0688     1.7507     1.1254 C.3     
  29 C29            2.0274     1.7175    -1.3725 C.3     
  30 C30            1.1995     2.0596    -2.6129 C.3     
  31 H31           -0.8640     1.8166    -0.0805 H       
  32 H32           -2.7344    -4.9188     0.0446 H       
  33 H33           -2.9061    -0.3127     0.2155 H       
  34 H34           -4.4057    -4.2973    -0.1647 H       
  35 H35           -6.7091    -3.4342    -0.1409 H       
  36 H36            0.9752    -5.9182    -0.0012 H       
  37 H37           -0.4461    -6.4677     0.9186 H       
  38 H38           -0.4740    -6.4919    -0.8610 H       
  39 H39            0.3508     3.8366    -1.0136 H       
  40 H40            0.3803     3.8603     0.7660 H       
  41 H41            2.0409     5.4446    -0.1728 H       
  42 H42            2.8446     4.1321     0.7216 H       
  43 H43            2.8151     4.1085    -1.0580 H       
  44 H44            2.2827     0.6820     1.1361 H       
  45 H45            3.0050     2.3085     1.1025 H       
  46 H46            1.5084     2.0181     2.0213 H       
  47 H47            2.9637     2.2752    -1.3954 H       
  48 H48            2.2414     0.6488    -1.3618 H       
  49 H49            1.7599     1.7922    -3.5088 H       
  50 H50            0.2633     1.5018    -2.5900 H       
  51 H51            0.9856     3.1283    -2.6235 H       
@<TRIPOS>BOND
   1    1    2 am
   2    1   25 1
   3    1   31 1
   4    2    3 2
   5    2    4 1
   6    4    6 2
   7    5    6 1
   8    5    9 1
   9    6    7 1
  10    7    8 1
  11    7   17 1
  12    8    9 2
  13    8   32 1
  14    9   24 1
  15   10   11 1
  16   10   15 1
  17   11   12 1
  18   11   22 1
  19   11   23 1
  20   12   13 1
  21   12   20 1
  22   12   21 1
  23   13   14 1
  24   14   15 ar
  25   14   16 ar
  26   15   19 ar
  27   16   17 ar
  28   16   33 1
  29   17   18 ar
  30   18   19 ar
  31   18   34 1
  32   19   35 1
  33   24   36 1
  34   24   37 1
  35   24   38 1
  36   25   26 1
  37   25   28 1
  38   25   29 1
  39   26   27 1
  40   26   39 1
  41   26   40 1
  42   27   41 1
  43   27   42 1
  44   27   43 1
  45   28   44 1
  46   28   45 1
  47   28   46 1
  48   29   30 1
  49   29   47 1
  50   29   48 1
  51   30   49 1
  52   30   50 1
  53   30   51 1

#	End of record

