#	Name: ASD04910319
#	Creating user name:	WinNT
#	Creation time:	15. 06. 2019 20:55

#	Modifying user name:	WinNT
#	Modification time:	15. 06. 2019 20:55

#	Program:	/corina/corina34_cracker 3.40 0067  02.08.2006

@<TRIPOS>MOLECULE
ASD04910319
  64   66    0    0    0
SMALL
NO_CHARGES


@<TRIPOS>ATOM
   1 C1             0.1212     1.2158    -0.2913 C.ar    
   2 C2             0.3253    -0.1522    -0.3267 C.ar    
   3 C3            -0.7293    -1.0035    -0.5842 C.ar    
   4 C4            -2.0043    -0.4821    -0.8088 C.ar    
   5 C5            -2.2034     0.8989    -0.7712 C.ar    
   6 C6            -1.1413     1.7389    -0.5074 C.ar    
   7 C7             1.2780     2.1398    -0.0099 C.3     
   8 O8             1.1202     3.3437    -0.7635 O.3     
   9 C9             2.2418     3.8783    -1.3144 C.ar    
  10 C10            1.3128     2.4734     1.4829 C.3     
  11 C11            3.4827     3.3222    -1.0365 C.ar    
  12 C12            2.1435     4.9756    -2.1585 C.ar    
  13 C13            3.2802     5.5197    -2.7198 C.ar    
  14 C14            4.5275     4.9669    -2.4384 C.ar    
  15 C15            4.6227     3.8625    -1.5947 C.ar    
  16 C16            5.7529     5.5504    -3.0411 C.2     
  17 C17            5.8067     6.6570    -3.9106 C.2     
  18 N18            7.0580     6.8668    -4.2240 N.2     
  19 N19            7.8461     5.9104    -3.5725 N.pl3   
  20 C20            7.0315     5.1156    -2.8485 C.2     
  21 C21           -3.1390    -1.3885    -1.0858 C.2     
  22 N22           -4.3690    -0.8818    -1.3022 N.am    
  23 O23           -2.9626    -2.5907    -1.1183 O.2     
  24 C24           -5.4933    -1.7800    -1.5767 C.3     
  25 C25           -6.7657    -0.9559    -1.7837 C.3     
  26 C26           -7.9223    -1.8799    -2.0660 C.2     
  27 O27           -7.7469    -3.0749    -2.0983 O.2     
  28 O28           -9.1473    -1.3752    -2.2816 O.3     
  29 C29            9.3041     5.7956    -3.6584 C.3     
  30 C30            2.5571     3.3091     1.7898 C.3     
  31 C31            2.5920     3.6427     3.2826 C.3     
  32 C32            9.7211     5.6833    -5.1262 C.3     
  33 C33           11.2438     5.5634    -5.2160 C.3     
  34 H34            1.3124    -0.5544    -0.1528 H       
  35 H35           -0.5685    -2.0711    -0.6123 H       
  36 H36           -3.1876     1.3087    -0.9441 H       
  37 H37           -1.2940     2.8077    -0.4780 H       
  38 H38            2.2102     1.6522    -0.2951 H       
  39 H39            0.4202     3.0393     1.7496 H       
  40 H40            1.3437     1.5499     2.0609 H       
  41 H41            3.5559     2.4660    -0.3823 H       
  42 H42            1.1762     5.4038    -2.3764 H       
  43 H43            3.2031     6.3732    -3.3771 H       
  44 H44            5.5885     3.4320    -1.3748 H       
  45 H45            4.9611     7.2319    -4.2582 H       
  46 H46            7.3357     4.2820    -2.2330 H       
  47 H47           -4.5098     0.0775    -1.2762 H       
  48 H48           -5.2848    -2.3587    -2.4765 H       
  49 H49           -5.6319    -2.4568    -0.7335 H       
  50 H50           -6.9742    -0.3773    -0.8838 H       
  51 H51           -6.6271    -0.2792    -2.6268 H       
  52 H52           -9.8575    -2.0072    -2.4586 H       
  53 H53            9.7648     6.6791    -3.2164 H       
  54 H54            9.6310     4.9068    -3.1188 H       
  55 H55            3.4497     2.7432     1.5230 H       
  56 H56            2.5262     4.2327     1.2117 H       
  57 H57            3.4785     4.2380     3.5012 H       
  58 H58            1.6994     4.2086     3.5493 H       
  59 H59            2.6229     2.7191     3.8606 H       
  60 H60            9.2604     4.7998    -5.5682 H       
  61 H61            9.3942     6.5721    -5.6659 H       
  62 H62           11.5409     5.4834    -6.2617 H       
  63 H63           11.7045     6.4469    -4.7740 H       
  64 H64           11.5707     4.6746    -4.6763 H       
@<TRIPOS>BOND
   1    1    2 ar
   2    1    7 1
   3    1    6 ar
   4    2    3 ar
   5    2   34 1
   6    3    4 ar
   7    3   35 1
   8    4    5 ar
   9    4   21 1
  10    5    6 ar
  11    5   36 1
  12    6   37 1
  13    7    8 1
  14    7   10 1
  15    7   38 1
  16    8    9 1
  17    9   11 ar
  18    9   12 ar
  19   10   30 1
  20   10   39 1
  21   10   40 1
  22   11   15 ar
  23   11   41 1
  24   12   13 ar
  25   12   42 1
  26   13   14 ar
  27   13   43 1
  28   14   15 ar
  29   14   16 1
  30   15   44 1
  31   16   17 1
  32   16   20 2
  33   17   18 2
  34   17   45 1
  35   18   19 1
  36   19   20 1
  37   19   29 1
  38   20   46 1
  39   21   22 am
  40   21   23 2
  41   22   24 1
  42   22   47 1
  43   24   25 1
  44   24   48 1
  45   24   49 1
  46   25   26 1
  47   25   50 1
  48   25   51 1
  49   26   27 2
  50   26   28 1
  51   28   52 1
  52   29   32 1
  53   29   53 1
  54   29   54 1
  55   30   31 1
  56   30   55 1
  57   30   56 1
  58   31   57 1
  59   31   58 1
  60   31   59 1
  61   32   33 1
  62   32   60 1
  63   32   61 1
  64   33   62 1
  65   33   63 1
  66   33   64 1

#	End of record

