#	Name: ASD04910051
#	Creating user name:	WinNT
#	Creation time:	15. 06. 2019 20:55

#	Modifying user name:	WinNT
#	Modification time:	15. 06. 2019 20:55

#	Program:	/corina/corina34_cracker 3.40 0067  02.08.2006

@<TRIPOS>MOLECULE
ASD04910051
  76   78    0    0    0
SMALL
NO_CHARGES


@<TRIPOS>ATOM
   1 C1             0.7214     0.3265    -0.9685 C.ar    
   2 C2             1.2501    -0.9625    -1.0527 C.ar    
   3 C3             2.6166    -1.1641    -0.8523 C.ar    
   4 C4             3.4356    -0.0897    -0.5725 C.ar    
   5 C5             2.9050     1.1855    -0.4904 C.ar    
   6 C6             1.5513     1.3922    -0.6880 C.ar    
   7 C7             0.3665    -2.1093    -1.3524 C.2     
   8 N8             0.8802    -3.3527    -1.4331 N.am    
   9 O9            -0.8232    -1.9307    -1.5261 O.2     
  10 C10            0.0046    -4.4891    -1.7301 C.3     
  11 C11            0.8324    -5.7754    -1.7643 C.3     
  12 C12           -0.0683    -6.9444    -2.0698 C.2     
  13 O13            0.4432    -8.1828    -2.1501 O.3     
  14 O14           -1.2509    -6.7669    -2.2424 O.2     
  15 C15            3.8055     2.3543    -0.1840 C.3     
  16 N16            4.3226     2.9137    -1.4353 N.am    
  17 C17            3.6440     3.8918    -2.0674 C.2     
  18 N18            2.5112     4.3834    -1.5275 N.am    
  19 O19            4.0539     4.3308    -3.1246 O.2     
  20 C20            5.5771     2.4100    -1.9997 C.3     
  21 C21            7.7138     2.5552    -3.9990 C.3     
  22 C22            6.6567     1.4497    -4.0381 C.3     
  23 C23            5.3465     1.9758    -3.4486 C.3     
  24 C24            6.6341     3.5155    -1.9607 C.3     
  25 C25            7.9444     2.9894    -2.5501 C.3     
  26 C26            1.8635     5.4715    -2.1280 C.ar    
  27 C27            2.0409     5.7247    -3.4815 C.ar    
  28 C28            1.0397     6.2935    -1.3708 C.ar    
  29 C29            0.4018     7.3656    -1.9631 C.ar    
  30 C30            0.5836     7.6210    -3.3144 C.ar    
  31 C31            1.4024     6.7971    -4.0726 C.ar    
  32 O32           -0.0454     8.6763    -3.8972 O.3     
  33 C33            0.1870     8.8803    -5.2923 C.3     
  34 C34            9.0240     2.0291    -4.5884 C.3     
  35 C35            8.7934     1.5950    -6.0373 C.3     
  36 C36           10.0810     3.1346    -4.5494 C.3     
  37 C37            9.5078     0.8317    -3.7681 C.3     
  38 F38           -0.2329     7.7520    -6.0049 F       
  39 F39           -0.5313     9.9998    -5.7259 F       
  40 F40            1.5528     9.0889    -5.5119 F       
  41 H41           -0.3344     0.4898    -1.1269 H       
  42 H42            3.0319    -2.1590    -0.9158 H       
  43 H43            4.4930    -0.2444    -0.4169 H       
  44 H44            1.1435     2.3901    -0.6226 H       
  45 H45            1.8296    -3.4952    -1.2945 H       
  46 H46           -0.7605    -4.5698    -0.9579 H       
  47 H47           -0.4715    -4.3375    -2.6988 H       
  48 H48            1.5974    -5.6947    -2.5365 H       
  49 H49            1.3084    -5.9270    -0.7955 H       
  50 H50           -0.1736    -8.9006    -2.3483 H       
  51 H51            3.2402     3.1185     0.3494 H       
  52 H52            4.6376     2.0194     0.4354 H       
  53 H53            2.1441     3.9840    -0.7233 H       
  54 H54            5.9218     1.5569    -1.4153 H       
  55 H55            7.3691     3.4083    -4.5834 H       
  56 H56            6.4925     1.1404    -5.0703 H       
  57 H57            7.0014     0.5967    -3.4536 H       
  58 H58            4.5935     1.1883    -3.4765 H       
  59 H59            5.0019     2.8289    -4.0331 H       
  60 H60            6.2895     4.3685    -2.5451 H       
  61 H61            6.7984     3.8248    -0.9285 H       
  62 H62            8.2890     2.1363    -1.9657 H       
  63 H63            8.6974     3.7769    -2.5223 H       
  64 H64            2.6784     5.0832    -4.0719 H       
  65 H65            0.8975     6.0943    -0.3189 H       
  66 H66           -0.2391     8.0050    -1.3743 H       
  67 H67            1.5404     6.9941    -5.1255 H       
  68 H68            8.4487     2.4480    -6.6217 H       
  69 H69            9.7268     1.2202    -6.4572 H       
  70 H70            8.0403     0.8074    -6.0651 H       
  71 H71           10.2453     3.4439    -3.5172 H       
  72 H72           11.0144     2.7598    -4.9693 H       
  73 H73            9.7363     3.9877    -5.1338 H       
  74 H74            8.7547     0.0441    -3.7959 H       
  75 H75           10.4412     0.4569    -4.1880 H       
  76 H76            9.6721     1.1410    -2.7359 H       
@<TRIPOS>BOND
   1    1    2 ar
   2    1    6 ar
   3    1   41 1
   4    2    3 ar
   5    2    7 1
   6    3    4 ar
   7    3   42 1
   8    4    5 ar
   9    4   43 1
  10    5    6 ar
  11    5   15 1
  12    6   44 1
  13    7    8 am
  14    7    9 2
  15    8   10 1
  16    8   45 1
  17   10   11 1
  18   10   46 1
  19   10   47 1
  20   11   12 1
  21   11   48 1
  22   11   49 1
  23   12   13 1
  24   12   14 2
  25   13   50 1
  26   15   16 1
  27   15   51 1
  28   15   52 1
  29   16   17 am
  30   16   20 1
  31   17   18 am
  32   17   19 2
  33   18   26 1
  34   18   53 1
  35   20   24 1
  36   20   23 1
  37   20   54 1
  38   21   22 1
  39   21   25 1
  40   21   34 1
  41   21   55 1
  42   22   23 1
  43   22   56 1
  44   22   57 1
  45   23   58 1
  46   23   59 1
  47   24   25 1
  48   24   60 1
  49   24   61 1
  50   25   62 1
  51   25   63 1
  52   26   28 ar
  53   26   27 ar
  54   27   31 ar
  55   27   64 1
  56   28   29 ar
  57   28   65 1
  58   29   30 ar
  59   29   66 1
  60   30   31 ar
  61   30   32 1
  62   31   67 1
  63   32   33 1
  64   33   38 1
  65   33   39 1
  66   33   40 1
  67   34   35 1
  68   34   36 1
  69   34   37 1
  70   35   68 1
  71   35   69 1
  72   35   70 1
  73   36   71 1
  74   36   72 1
  75   36   73 1
  76   37   74 1
  77   37   75 1
  78   37   76 1

#	End of record

