#	Name: ASD01028102
#	Creating user name:	WinNT
#	Creation time:	15. 06. 2019 18:56

#	Modifying user name:	WinNT
#	Modification time:	15. 06. 2019 18:56

#	Program:	/corina/corina34_cracker 3.40 0067  02.08.2006

@<TRIPOS>MOLECULE
ASD01028102
  32   34    0    0    0
SMALL
NO_CHARGES


@<TRIPOS>ATOM
   1 N1             1.9503     1.1358    -0.3800 N.pl3   
   2 C2             1.4520    -0.2548    -0.2856 C.ar    
   3 C3             1.6596    -0.9950     0.8847 C.ar    
   4 C4             2.3715    -0.3936     2.0197 C.2     
   5 C5             0.7773    -0.8205    -1.3496 C.ar    
   6 C6             0.3068    -2.1306    -1.2613 C.ar    
   7 C7             0.5169    -2.8715    -0.0999 C.ar    
   8 C8             1.1863    -2.3096     0.9700 C.ar    
   9 O9             0.4462    -0.3208    -2.5766 O.3     
  10 C10            0.1310    -1.4688    -3.3862 C.3     
  11 O11           -0.3178    -2.4484    -2.4315 O.3     
  12 O12            0.0566    -4.1483    -0.0172 O.3     
  13 C13            0.1806    -4.7955     1.1712 C.ar    
  14 C14            1.3065    -5.5603     1.4421 C.ar    
  15 N15            1.4311    -6.1893     2.5937 N.ar    
  16 C16            0.5021    -6.1198     3.5272 C.ar    
  17 C17           -0.6475    -5.3782     3.3305 C.ar    
  18 C18           -0.8167    -4.6961     2.1362 C.ar    
  19 C19            0.6965    -6.8594     4.8257 C.3     
  20 O20            3.0706     1.3537    -0.8053 O.2     
  21 O21            1.2381     2.0625    -0.0372 O.2     
  22 O22            2.5504    -1.0363     3.0328 O.2     
  23 H23            2.7357     0.6209     1.9525 H       
  24 H24            1.3485    -2.8855     1.8691 H       
  25 H25           -0.6634    -1.2319    -4.0939 H       
  26 H26            1.0187    -1.8233    -3.9100 H       
  27 H27            2.0885    -5.6412     0.7016 H       
  28 H28           -1.4032    -5.3273     4.1005 H       
  29 H29           -1.7047    -4.1087     1.9555 H       
  30 H30            1.2074    -6.2128     5.5392 H       
  31 H31           -0.2744    -7.1486     5.2280 H       
  32 H32            1.2971    -7.7517     4.6493 H       
@<TRIPOS>BOND
   1    1    2 1
   2    1   20 2
   3    1   21 2
   4    2    3 ar
   5    2    5 ar
   6    3    4 1
   7    3    8 ar
   8    4   22 2
   9    4   23 1
  10    5    6 ar
  11    5    9 1
  12    6    7 ar
  13    6   11 1
  14    7    8 ar
  15    7   12 1
  16    8   24 1
  17    9   10 1
  18   10   11 1
  19   10   25 1
  20   10   26 1
  21   12   13 1
  22   13   14 ar
  23   13   18 ar
  24   14   15 ar
  25   14   27 1
  26   15   16 ar
  27   16   17 ar
  28   16   19 1
  29   17   18 ar
  30   17   28 1
  31   18   29 1
  32   19   30 1
  33   19   31 1
  34   19   32 1

#	End of record

