#	Name: ASD03090021
#	Creating user name:	WinNT
#	Creation time:	15. 06. 2019 20:28

#	Modifying user name:	WinNT
#	Modification time:	15. 06. 2019 20:28

#	Program:	/corina/corina34_cracker 3.40 0067  02.08.2006

@<TRIPOS>MOLECULE
ASD03090021
  23   23    0    0    0
SMALL
NO_CHARGES


@<TRIPOS>ATOM
   1 C1            -0.1648     1.5022    -0.5483 C.2     
   2 C2            -0.1403    -0.0046    -0.5449 C.3     
   3 O3             0.7397     2.1222    -1.0664 O.2     
   4 N4            -1.1946     2.1607     0.0195 N.am    
   5 F5             1.0155    -0.4537    -1.1927 F       
   6 F6            -0.1450    -0.4681     0.7751 F       
   7 F7            -1.2686    -0.4908    -1.2139 F       
   8 C8            -1.1628     3.5522     0.1195 C.ar    
   9 C9            -2.3429     4.2823     0.0195 C.ar    
  10 C10           -2.3153     5.6552     0.1177 C.ar    
  11 C11           -1.0997     6.3157     0.3186 C.ar    
  12 C12            0.0836     5.5790     0.4190 C.ar    
  13 C13            0.0478     4.2055     0.3247 C.ar    
  14 C14           -3.6528     3.5694    -0.1971 C.3     
  15 C15           -1.0671     7.7436     0.4208 C.1     
  16 N16           -1.0411     8.8764     0.5018 N.1     
  17 H17           -1.9578     1.6674     0.3586 H       
  18 H18           -3.2317     6.2214     0.0392 H       
  19 H19            1.0245     6.0859     0.5743 H       
  20 H20            0.9614     3.6353     0.4059 H       
  21 H21           -4.0984     3.3270     0.7676 H       
  22 H22           -4.3291     4.2144    -0.7580 H       
  23 H23           -3.4783     2.6510    -0.7577 H       
@<TRIPOS>BOND
   1    1    2 1
   2    1    3 2
   3    1    4 am
   4    2    5 1
   5    2    6 1
   6    2    7 1
   7    4    8 1
   8    4   17 1
   9    8    9 ar
  10    8   13 ar
  11    9   10 ar
  12    9   14 1
  13   10   11 ar
  14   10   18 1
  15   11   12 ar
  16   11   15 1
  17   12   13 ar
  18   12   19 1
  19   13   20 1
  20   14   21 1
  21   14   22 1
  22   14   23 1
  23   15   16 3

#	End of record

