#	Name: ASD04780002
#	Creating user name:	WinNT
#	Creation time:	15. 06. 2019 20:52

#	Modifying user name:	WinNT
#	Modification time:	15. 06. 2019 20:52

#	Program:	/corina/corina34_cracker 3.40 0067  02.08.2006

@<TRIPOS>MOLECULE
ASD04780002
  47   48    0    0    0
SMALL
NO_CHARGES


@<TRIPOS>ATOM
   1 O1             0.0062     0.0484    -0.4113 O.2     
   2 C2            -0.0165     1.2443    -0.2045 C.2     
   3 C3             1.2560     2.0260    -0.2026 C.2     
   4 O4             1.2334     3.2216     0.0042 O.2     
   5 N5             2.4296     1.4036    -0.4304 N.am    
   6 C6             3.6807     2.1722    -0.4285 C.3     
   7 C7             4.8432     1.2408    -0.0861 C.3     
   8 C8             6.1622     2.0093    -0.0991 C.3     
   9 C9             6.2648     2.8724     1.1642 C.3     
  10 C10            7.3055     0.9719    -0.0378 C.3     
  11 N11            6.3400     2.8079    -1.2937 N.3     
  12 C12            5.2243     3.5406    -1.8550 C.3     
  13 C13            3.9174     2.7521    -1.8227 C.3     
  14 C14            5.0297     4.8846    -1.1431 C.3     
  15 C15            5.5450     3.8492    -3.3345 C.3     
  16 N16           -1.1906     1.8675     0.0178 N.am    
  17 C17           -2.3896     1.1569    -0.0858 C.ar    
  18 C18           -2.4475    -0.1724     0.3134 C.ar    
  19 C19           -3.6335    -0.8721     0.2098 C.ar    
  20 C20           -4.7637    -0.2503    -0.2916 C.ar    
  21 C21           -4.7090     1.0739    -0.6901 C.ar    
  22 C22           -3.5273     1.7803    -0.5830 C.ar    
  23 Cl23          -6.2527    -1.1333    -0.4215 Cl      
  24 H24            2.4477     0.4480    -0.5957 H       
  25 H25            3.6040     2.9695     0.3063 H       
  26 H26            4.6829     0.8108     0.9053 H       
  27 H27            4.8867     0.4313    -0.8182 H       
  28 H28            6.2264     2.2323     2.0456 H       
  29 H29            7.2068     3.4207     1.1541 H       
  30 H30            5.4341     3.5776     1.1909 H       
  31 H31            7.2421     0.3099    -0.9014 H       
  32 H32            8.2654     1.4883    -0.0455 H       
  33 H33            7.2155     0.3857     0.8767 H       
  34 H34            7.1896     3.3519    -1.2732 H       
  35 H35            3.9654     1.9387    -2.5502 H       
  36 H36            3.0879     3.4121    -2.0864 H       
  37 H37            5.9315     5.4872    -1.2516 H       
  38 H38            4.1849     5.4117    -1.5865 H       
  39 H39            4.8344     4.7103    -0.0850 H       
  40 H40            5.6909     2.9152    -3.8771 H       
  41 H41            4.7168     4.4017    -3.7782 H       
  42 H42            6.4537     4.4485    -3.3919 H       
  43 H43           -1.2035     2.8093     0.2498 H       
  44 H44           -1.5657    -0.6584     0.7041 H       
  45 H45           -3.6791    -1.9056     0.5200 H       
  46 H46           -5.5925     1.5566    -1.0810 H       
  47 H47           -3.4851     2.8137    -0.8942 H       
@<TRIPOS>BOND
   1    1    2 2
   2    2    3 1
   3    2   16 am
   4    3    4 2
   5    3    5 am
   6    5    6 1
   7    5   24 1
   8    6    7 1
   9    6   13 1
  10    6   25 1
  11    7    8 1
  12    7   26 1
  13    7   27 1
  14    8    9 1
  15    8   10 1
  16    8   11 1
  17    9   28 1
  18    9   29 1
  19    9   30 1
  20   10   31 1
  21   10   32 1
  22   10   33 1
  23   11   12 1
  24   11   34 1
  25   12   13 1
  26   12   14 1
  27   12   15 1
  28   13   35 1
  29   13   36 1
  30   14   37 1
  31   14   38 1
  32   14   39 1
  33   15   40 1
  34   15   41 1
  35   15   42 1
  36   16   17 1
  37   16   43 1
  38   17   18 ar
  39   17   22 ar
  40   18   19 ar
  41   18   44 1
  42   19   20 ar
  43   19   45 1
  44   20   21 ar
  45   20   23 1
  46   21   22 ar
  47   21   46 1
  48   22   47 1

#	End of record

