#	Name: ASD09890035
#	Creating user name:	WinNT
#	Creation time:	15. 06. 2019 21:24

#	Modifying user name:	WinNT
#	Modification time:	15. 06. 2019 21:24

#	Program:	/corina/corina34_cracker 3.40 0067  02.08.2006

@<TRIPOS>MOLECULE
ASD09890035
  45   47    0    0    0
SMALL
NO_CHARGES


@<TRIPOS>ATOM
   1 C1            -0.0167     1.3784     0.0096 C.ar    
   2 C2             0.0021    -0.0041     0.0020 C.ar    
   3 C3             1.2074    -0.6814    -0.0127 C.ar    
   4 C4             2.3963     0.0221    -0.0203 C.ar    
   5 C5             2.3802     1.4093    -0.0132 C.ar    
   6 C6             1.1695     2.0865     0.0021 C.ar    
   7 O7             3.5484     2.1036    -0.0202 O.3     
   8 C8             3.4557     3.5296    -0.0122 C.3     
   9 C9             4.8408     4.1231    -0.0217 C.2     
  10 N10            5.5758     4.4479    -1.1283 N.pl3   
  11 C11            6.7547     4.9487    -0.6554 C.2     
  12 N12            6.6908     4.9097     0.6553 N.2     
  13 N13            5.5577     4.4271     1.0230 N.2     
  14 S14            8.1062     5.5358    -1.6214 S.3     
  15 C15            9.2503     6.0146    -0.3031 C.3     
  16 C16           10.5813     6.4531    -0.9172 C.3     
  17 C17            8.6511     7.1734     0.4963 C.3     
  18 C18            4.4852     5.5431    -2.9992 C.ar    
  19 C19            5.2183     6.5711    -3.5619 C.ar    
  20 C20            4.5800     7.7173    -3.9973 C.ar    
  21 C21            3.2085     7.8353    -3.8705 C.ar    
  22 C22            2.4753     6.8069    -3.3087 C.ar    
  23 C23            3.1138     5.6613    -2.8720 C.ar    
  24 C24            5.1803     4.2909    -2.5302 C.3     
  25 H25           -0.9595     1.9052     0.0170 H       
  26 H26           -0.9263    -0.5558     0.0080 H       
  27 H27            1.2194    -1.7613    -0.0179 H       
  28 H28            3.3375    -0.5074    -0.0315 H       
  29 H29            1.1543     3.1664     0.0073 H       
  30 H30            2.9113     3.8632    -0.8956 H       
  31 H31            2.9274     3.8543     0.8842 H       
  32 H32            9.4180     5.1649     0.3588 H       
  33 H33           10.4136     7.3027    -1.5791 H       
  34 H34           11.2703     6.7414    -0.1233 H       
  35 H35           11.0082     5.6275    -1.4868 H       
  36 H36            7.7029     6.8610     0.9338 H       
  37 H37            9.3401     7.4617     1.2902 H       
  38 H38            8.4835     8.0230    -0.1656 H       
  39 H39            6.2898     6.4789    -3.6609 H       
  40 H40            5.1528     8.5208    -4.4363 H       
  41 H41            2.7099     8.7311    -4.2101 H       
  42 H42            1.4039     6.8994    -3.2090 H       
  43 H43            2.5410     4.8581    -2.4323 H       
  44 H44            6.0666     4.1170    -3.1404 H       
  45 H45            4.5026     3.4424    -2.6237 H       
@<TRIPOS>BOND
   1    1    2 ar
   2    1    6 ar
   3    1   25 1
   4    2    3 ar
   5    2   26 1
   6    3    4 ar
   7    3   27 1
   8    4    5 ar
   9    4   28 1
  10    5    6 ar
  11    5    7 1
  12    6   29 1
  13    7    8 1
  14    8    9 1
  15    8   30 1
  16    8   31 1
  17    9   10 1
  18    9   13 2
  19   10   11 1
  20   10   24 1
  21   11   12 2
  22   11   14 1
  23   12   13 1
  24   14   15 1
  25   15   16 1
  26   15   17 1
  27   15   32 1
  28   16   33 1
  29   16   34 1
  30   16   35 1
  31   17   36 1
  32   17   37 1
  33   17   38 1
  34   18   19 ar
  35   18   23 ar
  36   18   24 1
  37   19   20 ar
  38   19   39 1
  39   20   21 ar
  40   20   40 1
  41   21   22 ar
  42   21   41 1
  43   22   23 ar
  44   22   42 1
  45   23   43 1
  46   24   44 1
  47   24   45 1

#	End of record

