#	Name: ASD01880101
#	Creating user name:	WinNT
#	Creation time:	15. 06. 2019 19:40

#	Modifying user name:	WinNT
#	Modification time:	15. 06. 2019 19:40

#	Program:	/corina/corina34_cracker 3.40 0067  02.08.2006

@<TRIPOS>MOLECULE
ASD01880101
  67   71    0    0    0
SMALL
NO_CHARGES


@<TRIPOS>ATOM
   1 C1            -0.0169     1.3932     0.0097 C.ar    
   2 C2             0.0021    -0.0041     0.0020 C.ar    
   3 C3            -1.1810    -0.7079     0.0100 C.ar    
   4 C4            -2.3984    -0.0270     0.0258 C.ar    
   5 C5            -2.4187     1.3682     0.0330 C.ar    
   6 C6            -1.2374     2.0743     0.0309 C.ar    
   7 C7            -3.6718    -0.7864     0.0344 C.ar    
   8 C8            -4.6603    -0.4841     0.9694 C.ar    
   9 C9            -5.8439    -1.1941     0.9723 C.ar    
  10 C10           -6.0501    -2.2038     0.0498 C.ar    
  11 C11           -5.0725    -2.5083    -0.8807 C.ar    
  12 C12           -3.8874    -1.8017    -0.8965 C.ar    
  13 C13           -5.3047    -3.6098    -1.8825 C.3     
  14 O14           -5.9150    -3.0666    -3.0549 O.3     
  15 C15           -6.1931    -3.9321    -4.0619 C.ar    
  16 C16           -5.8842    -5.2800    -3.9239 C.ar    
  17 C17           -6.1654    -6.1630    -4.9456 C.ar    
  18 C18           -6.7624    -5.7006    -6.1206 C.ar    
  19 C19           -7.0701    -4.3349    -6.2469 C.ar    
  20 C20           -6.7924    -3.4706    -5.2289 C.ar    
  21 C21           -5.9343    -7.6515    -5.0474 C.3     
  22 C22           -6.4568    -8.0740    -6.4275 C.3     
  23 C23           -6.9694    -6.8061    -7.0661 C.2     
  24 C24           -5.3222    -8.6680    -7.2647 C.3     
  25 C25           -4.7360    -9.9025    -6.5576 C.3     
  26 C26           -4.9451   -11.0972    -7.5109 C.3     
  27 C27           -5.0648   -10.4484    -8.9123 C.3     
  28 C28           -5.8672    -9.1555    -8.6230 C.3     
  29 O29           -7.4658    -6.7154    -8.1691 O.2     
  30 C30           -7.1265    -2.0082    -5.3736 C.3     
  31 C31           -7.7139    -3.8244    -7.5103 C.3     
  32 C32           -3.7348     2.1022     0.0490 C.3     
  33 C33            1.2507     2.1492     0.0017 C.2     
  34 O34            1.2336     3.3639     0.0083 O.2     
  35 O35            2.4269     1.4920    -0.0131 O.3     
  36 H36            0.9444    -0.5315    -0.0105 H       
  37 H37           -1.1667    -1.7878     0.0037 H       
  38 H38           -1.2534     3.1541     0.0368 H       
  39 H39           -4.5003     0.3039     1.6904 H       
  40 H40           -6.6104    -0.9610     1.6966 H       
  41 H41           -6.9777    -2.7569     0.0561 H       
  42 H42           -3.1250    -2.0402    -1.6233 H       
  43 H43           -4.3513    -4.0668    -2.1476 H       
  44 H44           -5.9607    -4.3640    -1.4477 H       
  45 H45           -5.4226    -5.6369    -3.0151 H       
  46 H46           -4.8699    -7.8717    -4.9664 H       
  47 H47           -6.4854    -8.1707    -4.2633 H       
  48 H48           -7.2659    -8.7965    -6.3200 H       
  49 H49           -4.5432    -7.9217    -7.4202 H       
  50 H50           -3.6722    -9.7557    -6.3707 H       
  51 H51           -5.2597   -10.0785    -5.6180 H       
  52 H52           -4.0880   -11.7695    -7.4738 H       
  53 H53           -5.8612   -11.6311    -7.2583 H       
  54 H54           -4.0795   -10.2100    -9.3130 H       
  55 H55           -5.6130   -11.0990    -9.5937 H       
  56 H56           -6.9322    -9.3758    -8.5499 H       
  57 H57           -5.6830    -8.4109    -9.3974 H       
  58 H58           -8.1374    -1.8286    -5.0078 H       
  59 H59           -6.4195    -1.4149    -4.7937 H       
  60 H60           -7.0642    -1.7234    -6.4239 H       
  61 H61           -8.7983    -3.8733    -7.4109 H       
  62 H62           -7.4109    -2.7913    -7.6807 H       
  63 H63           -7.3982    -4.4393    -8.3531 H       
  64 H64           -4.0425     2.2739     1.0805 H       
  65 H65           -3.6235     3.0590    -0.4610 H       
  66 H66           -4.4904     1.5044    -0.4608 H       
  67 H67            3.2304     2.0301    -0.0179 H       
@<TRIPOS>BOND
   1    1    2 ar
   2    1   33 1
   3    1    6 ar
   4    2    3 ar
   5    2   36 1
   6    3    4 ar
   7    3   37 1
   8    4    5 ar
   9    4    7 1
  10    5    6 ar
  11    5   32 1
  12    6   38 1
  13    7    8 ar
  14    7   12 ar
  15    8    9 ar
  16    8   39 1
  17    9   10 ar
  18    9   40 1
  19   10   11 ar
  20   10   41 1
  21   11   12 ar
  22   11   13 1
  23   12   42 1
  24   13   14 1
  25   13   43 1
  26   13   44 1
  27   14   15 1
  28   15   16 ar
  29   15   20 ar
  30   16   17 ar
  31   16   45 1
  32   17   18 ar
  33   17   21 1
  34   18   19 ar
  35   18   23 1
  36   19   20 ar
  37   19   31 1
  38   20   30 1
  39   21   22 1
  40   21   46 1
  41   21   47 1
  42   22   23 1
  43   22   24 1
  44   22   48 1
  45   23   29 2
  46   24   25 1
  47   24   28 1
  48   24   49 1
  49   25   26 1
  50   25   50 1
  51   25   51 1
  52   26   27 1
  53   26   52 1
  54   26   53 1
  55   27   28 1
  56   27   54 1
  57   27   55 1
  58   28   56 1
  59   28   57 1
  60   30   58 1
  61   30   59 1
  62   30   60 1
  63   31   61 1
  64   31   62 1
  65   31   63 1
  66   32   64 1
  67   32   65 1
  68   32   66 1
  69   33   34 2
  70   33   35 1
  71   35   67 1

#	End of record

