#	Name: ASD01150757
#	Creating user name:	WinNT
#	Creation time:	15. 06. 2019 19:05

#	Modifying user name:	WinNT
#	Modification time:	15. 06. 2019 19:05

#	Program:	/corina/corina34_cracker 3.40 0067  02.08.2006

@<TRIPOS>MOLECULE
ASD01150757
  52   55    0    0    0
SMALL
NO_CHARGES


@<TRIPOS>ATOM
   1 C1             0.0404     1.4788     0.4555 C.2     
   2 C2            -0.8244     1.0315    -0.6948 C.3     
   3 N3             3.4364     2.7921    -0.2041 N.ar    
   4 C4             2.4441     1.9672     0.0042 C.ar    
   5 C5             1.1336     2.4292     0.2249 C.ar    
   6 C6             0.8846     3.8135     0.2213 C.ar    
   7 C7             1.9824     4.6795    -0.0076 C.ar    
   8 C8             1.8152     6.0699    -0.0258 C.ar    
   9 C9             2.9073     6.8824    -0.2513 C.ar    
  10 C10            4.1736     6.3262    -0.4610 C.ar    
  11 C11            4.3572     4.9781    -0.4473 C.ar    
  12 C12            3.2672     4.1214    -0.2202 C.ar    
  13 C13           -0.4749     4.3462     0.4479 C.ar    
  14 C14           -1.1044     4.1611     1.6808 C.ar    
  15 C15           -2.3733     4.6614     1.8856 C.ar    
  16 C16           -3.0228     5.3450     0.8728 C.ar    
  17 C17           -2.4052     5.5316    -0.3514 C.ar    
  18 C18           -1.1340     5.0421    -0.5679 C.ar    
  19 N19            2.7474     8.2694    -0.2707 N.3     
  20 C20            4.0280     8.9437    -0.5254 C.3     
  21 C21            3.7969    10.4538    -0.6179 C.3     
  22 N22            3.1930    10.9319     0.6336 N.3     
  23 C23            1.9123    10.2576     0.8883 C.3     
  24 C24            2.1435     8.7475     0.9808 C.3     
  25 C25            3.0248    12.3911     0.6132 C.3     
  26 C26            2.7105     0.4839     0.0076 C.3     
  27 F27           -2.1320     1.4894    -0.5007 F       
  28 F28           -0.3192     1.5558    -1.8894 F       
  29 F29           -0.8248    -0.3659    -0.7621 F       
  30 O30           -0.1708     1.0566     1.5731 O.2     
  31 H31            0.8389     6.5028     0.1350 H       
  32 H32            5.0179     6.9764    -0.6368 H       
  33 H33            5.3420     4.5661    -0.6115 H       
  34 H34           -0.5989     3.6271     2.4719 H       
  35 H35           -2.8613     4.5190     2.8385 H       
  36 H36           -4.0165     5.7343     1.0384 H       
  37 H37           -2.9181     6.0655    -1.1378 H       
  38 H38           -0.6514     5.1923    -1.5223 H       
  39 H39            4.7195     8.7309     0.2899 H       
  40 H40            4.4491     8.5821    -1.4635 H       
  41 H41            4.7497    10.9584    -0.7780 H       
  42 H42            3.1268    10.6688    -1.4503 H       
  43 H43            1.4913    10.6192     1.8264 H       
  44 H44            1.2209    10.4704     0.0730 H       
  45 H45            1.1907     8.2429     1.1409 H       
  46 H46            2.8136     8.5325     1.8132 H       
  47 H47            2.3759    12.6704    -0.2169 H       
  48 H48            2.5760    12.7183     1.5511 H       
  49 H49            3.9975    12.8673     0.4902 H       
  50 H50            2.8637     0.1446     1.0320 H       
  51 H51            1.8576    -0.0393    -0.4247 H       
  52 H52            3.6027     0.2736    -0.5821 H       
@<TRIPOS>BOND
   1    1    2 1
   2    1    5 1
   3    1   30 2
   4    2   27 1
   5    2   28 1
   6    2   29 1
   7    3    4 ar
   8    3   12 ar
   9    4    5 ar
  10    4   26 1
  11    5    6 ar
  12    6    7 ar
  13    6   13 1
  14    7    8 ar
  15    7   12 ar
  16    8    9 ar
  17    8   31 1
  18    9   10 ar
  19    9   19 1
  20   10   11 ar
  21   10   32 1
  22   11   12 ar
  23   11   33 1
  24   13   14 ar
  25   13   18 ar
  26   14   15 ar
  27   14   34 1
  28   15   16 ar
  29   15   35 1
  30   16   17 ar
  31   16   36 1
  32   17   18 ar
  33   17   37 1
  34   18   38 1
  35   19   20 1
  36   19   24 1
  37   20   21 1
  38   20   39 1
  39   20   40 1
  40   21   22 1
  41   21   41 1
  42   21   42 1
  43   22   23 1
  44   22   25 1
  45   23   24 1
  46   23   43 1
  47   23   44 1
  48   24   45 1
  49   24   46 1
  50   25   47 1
  51   25   48 1
  52   25   49 1
  53   26   50 1
  54   26   51 1
  55   26   52 1

#	End of record

