#	Name: ASD01913274
#	Creating user name:	WinNT
#	Creation time:	15. 06. 2019 20:01

#	Modifying user name:	WinNT
#	Modification time:	15. 06. 2019 20:01

#	Program:	/corina/corina34_cracker 3.40 0067  02.08.2006

@<TRIPOS>MOLECULE
ASD01913274
  47   50    0    0    0
SMALL
NO_CHARGES


@<TRIPOS>ATOM
   1 C1            -0.0798     0.1357     1.6810 C.1     
   2 C2            -0.0869     1.5465     1.4360 C.ar    
   3 C3             1.1143     2.2630     1.4406 C.ar    
   4 C4             1.1081     3.6083     1.2066 C.ar    
   5 C5            -0.1006     4.2702     0.9621 C.ar    
   6 C6            -1.3023     3.5528     0.9575 C.ar    
   7 C7            -1.2945     2.2067     1.1864 C.ar    
   8 N8            -0.0741    -0.9836     1.8753 N.1     
   9 C9            -0.1077     5.6810     0.7171 C.1     
  10 C10           -0.1136     6.8377     0.5162 C.1     
  11 C11           -0.1207     8.2486     0.2713 C.ar    
  12 C12           -1.3326     8.9155     0.0255 C.ar    
  13 C13           -1.3364    10.2823    -0.2116 C.ar    
  14 C14           -0.1547    10.9914    -0.2073 C.ar    
  15 C15            1.0579    10.3384     0.0356 C.ar    
  16 C16            1.0736     8.9662     0.2813 C.ar    
  17 O17           -2.4985     8.2229     0.0196 O.3     
  18 C18           -3.6925     8.9649    -0.2372 C.3     
  19 C19            2.3207    11.1033     0.0379 C.2     
  20 O20            2.2968    12.3165    -0.0386 O.2     
  21 C21            4.8345    11.0568     0.0274 C.3     
  22 N22            3.5000    10.4568     0.1249 N.am    
  23 C23            3.6943     9.0187     0.3357 C.3     
  24 C24            5.1788     8.7560     0.3645 C.ar    
  25 C25            5.8942     7.5827     0.5323 C.ar    
  26 C26            7.2754     7.6055     0.5196 C.ar    
  27 C27            7.9446     8.8017     0.3387 C.ar    
  28 C28            7.2312     9.9728     0.1707 C.ar    
  29 C29            5.8470     9.9506     0.1838 C.ar    
  30 H30            2.0469     1.7522     1.6297 H       
  31 H31            2.0356     4.1615     1.2106 H       
  32 H32           -2.2353     4.0632     0.7692 H       
  33 H33           -2.2213     1.6523     1.1788 H       
  34 H34           -2.2693    10.7928    -0.4006 H       
  35 H35           -0.1651    12.0553    -0.3926 H       
  36 H36            2.0082     8.4606     0.4743 H       
  37 H37           -4.5502     8.2927    -0.2134 H       
  38 H38           -3.8129     9.7347     0.5251 H       
  39 H39           -3.6251     9.4333    -1.2191 H       
  40 H40            4.9551    11.5333    -0.9454 H       
  41 H41            4.9670    11.7936     0.8197 H       
  42 H42            3.2480     8.7207     1.2845 H       
  43 H43            3.2361     8.4604    -0.4806 H       
  44 H44            5.3717     6.6481     0.6736 H       
  45 H45            7.8322     6.6895     0.6514 H       
  46 H46            9.0244     8.8207     0.3290 H       
  47 H47            7.7542    10.9071     0.0298 H       
@<TRIPOS>BOND
   1    1    2 1
   2    1    8 3
   3    2    3 ar
   4    2    7 ar
   5    3    4 ar
   6    3   30 1
   7    4    5 ar
   8    4   31 1
   9    5    6 ar
  10    5    9 1
  11    6    7 ar
  12    6   32 1
  13    7   33 1
  14    9   10 3
  15   10   11 1
  16   11   12 ar
  17   11   16 ar
  18   12   13 ar
  19   12   17 1
  20   13   14 ar
  21   13   34 1
  22   14   15 ar
  23   14   35 1
  24   15   16 ar
  25   15   19 1
  26   16   36 1
  27   17   18 1
  28   18   37 1
  29   18   38 1
  30   18   39 1
  31   19   20 2
  32   19   22 am
  33   21   22 1
  34   21   29 1
  35   21   40 1
  36   21   41 1
  37   22   23 1
  38   23   24 1
  39   23   42 1
  40   23   43 1
  41   24   25 ar
  42   24   29 ar
  43   25   26 ar
  44   25   44 1
  45   26   27 ar
  46   26   45 1
  47   27   28 ar
  48   27   46 1
  49   28   29 ar
  50   28   47 1

#	End of record

