#	Name: ASD03091930
#	Creating user name:	WinNT
#	Creation time:	15. 06. 2019 20:31

#	Modifying user name:	WinNT
#	Modification time:	15. 06. 2019 20:31

#	Program:	/corina/corina34_cracker 3.40 0067  02.08.2006

@<TRIPOS>MOLECULE
ASD03091930
  56   60    0    0    0
SMALL
NO_CHARGES


@<TRIPOS>ATOM
   1 C1            -0.0319     1.4694     0.0687 C.ar    
   2 C2            -1.2778     2.1213     0.0997 C.ar    
   3 C3            -2.4649     1.3464     0.0841 C.ar    
   4 C4            -2.3842    -0.0593     0.0359 C.ar    
   5 C5            -1.1750    -0.6757     0.0066 C.ar    
   6 C6             0.0103     0.0754     0.0223 C.ar    
   7 O7             1.1317     2.1591     0.0883 O.3     
   8 C8             2.2382     1.5571     0.7605 C.3     
   9 N9             2.4127     0.1691     0.3301 N.am    
  10 C10            1.3342    -0.5773    -0.0027 C.2     
  11 C11           -3.6463    -0.8827     0.0174 C.3     
  12 N12           -4.2172    -0.9342     1.3700 N.3     
  13 C13           -5.6133    -1.3880     1.3349 C.3     
  14 O14            1.4517    -1.7476    -0.3120 O.2     
  15 C15            3.7556    -0.4122     0.2592 C.3     
  16 C16            4.6068     0.3489    -0.7782 C.3     
  17 C17            4.4697    -0.2562     1.6133 C.3     
  18 C18            5.7299     0.5943     1.3515 C.3     
  19 C19            5.3937     1.3847     0.0626 C.3     
  20 O20            4.8417    -1.5390     2.1212 O.3     
  21 C21           -3.7089     1.9974     0.1176 C.ar    
  22 C22           -1.3688     3.5215     0.1461 C.ar    
  23 C23           -2.5927     4.1180     0.1775 C.ar    
  24 C24           -3.7595     3.3575     0.1630 C.ar    
  25 C25           -6.2181    -1.2907     2.7373 C.3     
  26 C26           -5.4037    -2.1589     3.7004 C.3     
  27 C27           -3.9440    -1.6967     3.6818 C.3     
  28 C28           -3.4052    -1.7822     2.2519 C.3     
  29 F29           -5.9183    -2.0303     4.9949 F       
  30 H30           -1.1248    -1.7539    -0.0300 H       
  31 H31            3.1443     2.1195     0.5350 H       
  32 H32            2.0606     1.5799     1.8357 H       
  33 H33           -4.3661    -0.4289    -0.6638 H       
  34 H34           -3.4156    -1.8937    -0.3184 H       
  35 H35           -6.1823    -0.7597     0.6496 H       
  36 H36           -5.6504    -2.4228     0.9944 H       
  37 H37            3.6921    -1.4665    -0.0101 H       
  38 H38            5.2919    -0.3322    -1.2830 H       
  39 H39            3.9659     0.8526    -1.5017 H       
  40 H40            3.8171     0.2520     2.3232 H       
  41 H41            5.9086     1.2771     2.1821 H       
  42 H42            6.5963    -0.0472     1.1906 H       
  43 H43            6.3048     1.6886    -0.4529 H       
  44 H44            4.7711     2.2497     0.2912 H       
  45 H45            5.2966    -1.5076     2.9739 H       
  46 H46           -4.6224     1.4213     0.1070 H       
  47 H47           -0.4719     4.1231     0.1573 H       
  48 H48           -2.6595     5.1953     0.2139 H       
  49 H49           -4.7184     3.8538     0.1883 H       
  50 H50           -6.1939    -0.2540     3.0729 H       
  51 H51           -7.2496    -1.6424     2.7140 H       
  52 H52           -5.4597    -3.2014     3.3871 H       
  53 H53           -3.8841    -0.6663     4.0322 H       
  54 H54           -3.3508    -2.3384     4.3332 H       
  55 H55           -3.4526    -2.8152     1.9071 H       
  56 H56           -2.3704    -1.4403     2.2327 H       
@<TRIPOS>BOND
   1    1    6 ar
   2    1    7 1
   3    1    2 ar
   4    2    3 ar
   5    2   22 ar
   6    3    4 ar
   7    3   21 ar
   8    4    5 ar
   9    4   11 1
  10    5    6 ar
  11    5   30 1
  12    6   10 1
  13    7    8 1
  14    8    9 1
  15    8   31 1
  16    8   32 1
  17    9   10 am
  18    9   15 1
  19   10   14 2
  20   11   12 1
  21   11   33 1
  22   11   34 1
  23   12   13 1
  24   12   28 1
  25   13   25 1
  26   13   35 1
  27   13   36 1
  28   15   17 1
  29   15   16 1
  30   15   37 1
  31   16   19 1
  32   16   38 1
  33   16   39 1
  34   17   18 1
  35   17   20 1
  36   17   40 1
  37   18   19 1
  38   18   41 1
  39   18   42 1
  40   19   43 1
  41   19   44 1
  42   20   45 1
  43   21   24 ar
  44   21   46 1
  45   22   23 ar
  46   22   47 1
  47   23   24 ar
  48   23   48 1
  49   24   49 1
  50   25   26 1
  51   25   50 1
  52   25   51 1
  53   26   27 1
  54   26   29 1
  55   26   52 1
  56   27   28 1
  57   27   53 1
  58   27   54 1
  59   28   55 1
  60   28   56 1

#	End of record

