#	Name: ASD01910661
#	Creating user name:	WinNT
#	Creation time:	15. 06. 2019 19:56

#	Modifying user name:	WinNT
#	Modification time:	15. 06. 2019 19:56

#	Program:	/corina/corina34_cracker 3.40 0067  02.08.2006

@<TRIPOS>MOLECULE
ASD01910661
  35   37    0    0    0
SMALL
NO_CHARGES


@<TRIPOS>ATOM
   1 C1            -0.0167     1.3819     0.0096 C.ar    
   2 C2             0.0021    -0.0041     0.0020 C.ar    
   3 C3            -1.1857    -0.7194     0.0100 C.ar    
   4 C4            -2.3933    -0.0554     0.0255 C.ar    
   5 C5            -2.4191     1.3425     0.0333 C.ar    
   6 C6            -1.2182     2.0578     0.0305 C.ar    
   7 C7            -3.6704     2.0385     0.0494 C.1     
   8 C8            -4.6964     2.6091     0.0627 C.1     
   9 C9            -5.9477     3.3051     0.0788 C.ar    
  10 C10           -5.9691     4.7050     0.0866 C.ar    
  11 C11           -7.1624     5.3651     0.1017 C.ar    
  12 C12           -8.3617     4.6430     0.1089 C.ar    
  13 C13           -8.3429     3.2479     0.1022 C.ar    
  14 C14           -7.1480     2.5850     0.0811 C.ar    
  15 C15           -7.2116     6.8702     0.1115 C.3     
  16 C16           -8.4248     7.3555    -0.6787 C.3     
  17 N17           -9.6435     6.6876    -0.2300 N.am    
  18 C18           -9.6378     5.3866     0.1226 C.2     
  19 O19          -10.6699     4.8324     0.4482 O.2     
  20 C20            1.2789     2.1515     0.0014 C.3     
  21 F21            1.1827    -0.6607    -0.0137 F       
  22 H22           -1.1644    -1.7992     0.0036 H       
  23 H23           -3.3178    -0.6137     0.0314 H       
  24 H24           -1.2315     3.1377     0.0368 H       
  25 H25           -5.0430     5.2606     0.0809 H       
  26 H26           -9.2698     2.6936     0.1086 H       
  27 H27           -7.1297     1.5052     0.0758 H       
  28 H28           -7.2846     7.2234     1.1401 H       
  29 H29           -6.3026     7.2651    -0.3420 H       
  30 H30           -8.5347     8.4311    -0.5409 H       
  31 H31           -8.2702     7.1450    -1.7369 H       
  32 H32          -10.4723     7.1895    -0.1847 H       
  33 H33            1.5815     2.3426    -1.0282 H       
  34 H34            1.1417     3.0994     0.5217 H       
  35 H35            2.0506     1.5691     0.5048 H       
@<TRIPOS>BOND
   1    1    2 ar
   2    1   20 1
   3    1    6 ar
   4    2    3 ar
   5    2   21 1
   6    3    4 ar
   7    3   22 1
   8    4    5 ar
   9    4   23 1
  10    5    6 ar
  11    5    7 1
  12    6   24 1
  13    7    8 3
  14    8    9 1
  15    9   10 ar
  16    9   14 ar
  17   10   11 ar
  18   10   25 1
  19   11   12 ar
  20   11   15 1
  21   12   13 ar
  22   12   18 1
  23   13   14 ar
  24   13   26 1
  25   14   27 1
  26   15   16 1
  27   15   28 1
  28   15   29 1
  29   16   17 1
  30   16   30 1
  31   16   31 1
  32   17   18 am
  33   17   32 1
  34   18   19 2
  35   20   33 1
  36   20   34 1
  37   20   35 1

#	End of record

