#	Name: ASD02500764
#	Creating user name:	WinNT
#	Creation time:	15. 06. 2019 20:23

#	Modifying user name:	WinNT
#	Modification time:	15. 06. 2019 20:23

#	Program:	/corina/corina34_cracker 3.40 0067  02.08.2006

@<TRIPOS>MOLECULE
ASD02500764
  47   50    0    0    0
SMALL
NO_CHARGES


@<TRIPOS>ATOM
   1 S1            -0.0211     1.7022     0.0114 S.3     
   2 C2             0.0021    -0.0041     0.0020 C.2     
   3 N3             1.1983    -0.4573    -0.0118 N.2     
   4 C4             2.2084     0.4332    -0.0167 C.ar    
   5 C5             1.7390     1.7516    -0.0051 C.ar    
   6 C6             2.6368     2.8166    -0.0080 C.ar    
   7 C7             3.9920     2.5733    -0.0222 C.ar    
   8 C8             4.4640     1.2686    -0.0338 C.ar    
   9 C9             3.6006     0.2150    -0.0319 C.ar    
  10 C10           -1.2322    -0.8687     0.0096 C.3     
  11 S11            6.2006     0.9711    -0.0519 S.o2    
  12 O12            6.3798    -0.3255    -0.6051 O.2     
  13 O13            6.8019     2.1380    -0.5959 O.2     
  14 N14            6.6988     0.8798     1.5247 N.am    
  15 C15            6.7102    -0.4083     2.2322 C.3     
  16 C16            8.1205    -0.6523     2.7833 C.3     
  17 N17            8.5597     0.5533     3.5000 N.am    
  18 C18            8.5483     1.8414     2.7925 C.3     
  19 C19            7.1433     2.0845     2.2396 C.3     
  20 S20            9.0579     0.4620     5.0766 S.o2    
  21 O21            8.8792     1.7588     5.6296 O.2     
  22 O22            8.4562    -0.7046     5.6207 O.2     
  23 C23           10.7944     0.1639     5.0584 C.ar    
  24 C24           11.6799     1.2278     5.0555 C.ar    
  25 C25           13.0444     0.9923     5.0411 C.ar    
  26 C26           13.5222    -0.3045     5.0297 C.ar    
  27 C27           12.6390    -1.3676     5.0326 C.ar    
  28 C28           11.2742    -1.1345     5.0527 C.ar    
  29 F29           10.4112    -2.1739     5.0616 F       
  30 F30           11.2130     2.4955     5.0662 F       
  31 H31            2.2702     3.8324     0.0006 H       
  32 H32            4.6883     3.3988    -0.0248 H       
  33 H33            3.9854    -0.7941    -0.0410 H       
  34 H34           -2.1193    -0.2356     0.0214 H       
  35 H35           -1.2435    -1.4936    -0.8834 H       
  36 H36           -1.2263    -1.5025     0.8964 H       
  37 H37            5.9957    -0.3801     3.0549 H       
  38 H38            6.4443    -1.2078     1.5407 H       
  39 H39            8.1038    -1.4996     3.4688 H       
  40 H40            8.8045    -0.8580     1.9600 H       
  41 H41            8.8142     2.6409     3.4840 H       
  42 H42            9.2628     1.8132     1.9698 H       
  43 H43            7.1634     2.9308     1.5530 H       
  44 H44            6.4604     2.2942     3.0628 H       
  45 H45           13.7354     1.8222     5.0385 H       
  46 H46           14.5866    -0.4873     5.0181 H       
  47 H47           13.0136    -2.3806     5.0233 H       
@<TRIPOS>BOND
   1    1    2 1
   2    1    5 1
   3    2    3 2
   4    2   10 1
   5    3    4 1
   6    4    5 ar
   7    4    9 ar
   8    5    6 ar
   9    6    7 ar
  10    6   31 1
  11    7    8 ar
  12    7   32 1
  13    8    9 ar
  14    8   11 1
  15    9   33 1
  16   10   34 1
  17   10   35 1
  18   10   36 1
  19   11   12 2
  20   11   13 2
  21   11   14 am
  22   14   15 1
  23   14   19 1
  24   15   16 1
  25   15   37 1
  26   15   38 1
  27   16   17 1
  28   16   39 1
  29   16   40 1
  30   17   18 1
  31   17   20 am
  32   18   19 1
  33   18   41 1
  34   18   42 1
  35   19   43 1
  36   19   44 1
  37   20   21 2
  38   20   22 2
  39   20   23 1
  40   23   24 ar
  41   23   28 ar
  42   24   25 ar
  43   24   30 1
  44   25   26 ar
  45   25   45 1
  46   26   27 ar
  47   26   46 1
  48   27   28 ar
  49   27   47 1
  50   28   29 1

#	End of record

