#	Name: ASD01910544
#	Creating user name:	WinNT
#	Creation time:	15. 06. 2019 19:56

#	Modifying user name:	WinNT
#	Modification time:	15. 06. 2019 19:56

#	Program:	/corina/corina34_cracker 3.40 0067  02.08.2006

@<TRIPOS>MOLECULE
ASD01910544
  42   45    0    0    0
SMALL
NO_CHARGES


@<TRIPOS>ATOM
   1 N1             0.0806     0.1663     0.1034 N.2     
   2 C2             0.1252    -1.0138     0.6711 C.2     
   3 N3             1.4313    -1.3151     0.8613 N.2     
   4 C4             2.1001    -0.2914     0.3935 C.2     
   5 O5             1.2047     0.5911    -0.0612 O.3     
   6 C6            -1.0324    -1.8569     1.0357 C.2     
   7 C7            -2.3450    -1.5455     0.8404 C.2     
   8 C8            -3.1065    -2.6188     1.3284 C.2     
   9 C9            -2.2479    -3.5487     1.8043 C.2     
  10 N10           -0.9763    -3.0945     1.6253 N.pl3   
  11 C11            3.9964     1.1037     1.1787 C.3     
  12 C12            3.5989    -0.1365     0.3721 C.3     
  13 C13            4.0751     0.0257    -1.0733 C.3     
  14 C14            5.6002     0.1502    -1.0988 C.3     
  15 C15            6.0204     1.3937    -0.3089 C.3     
  16 N16            5.4439     1.3140     1.0402 N.am    
  17 C17            6.2282     1.4311     2.1300 C.2     
  18 C18            7.6920     1.5578     1.9765 C.ar    
  19 O19            5.7310     1.4325     3.2394 O.2     
  20 Cl20          -4.8388    -2.7321     1.3220 Cl      
  21 C21            8.2253     2.5056     1.1005 C.ar    
  22 C22            9.5918     2.6199     0.9615 C.ar    
  23 C23           10.4366     1.7959     1.6894 C.ar    
  24 C24            9.9124     0.8528     2.5602 C.ar    
  25 C25            8.5475     0.7340     2.7112 C.ar    
  26 F26           11.7753     1.9121     1.5493 F       
  27 H27           -2.7282    -0.6403     0.3929 H       
  28 H28           -2.5238    -4.4940     2.2479 H       
  29 H29           -0.1665    -3.5651     1.8775 H       
  30 H30            3.4626     1.9742     0.7973 H       
  31 H31            3.7481     0.9515     2.2290 H       
  32 H32            4.0627    -1.0199     0.8109 H       
  33 H33            3.7720    -0.8446    -1.6553 H       
  34 H34            3.6303     0.9230    -1.5036 H       
  35 H35            6.0452    -0.7359    -0.6462 H       
  36 H36            5.9405     0.2422    -2.1303 H       
  37 H37            7.1075     1.4328    -0.2401 H       
  38 H38            5.6516     2.2878    -0.8116 H       
  39 H39            7.5681     3.1477     0.5328 H       
  40 H40           10.0053     3.3524     0.2840 H       
  41 H41           10.5748     0.2132     3.1246 H       
  42 H42            8.1402    -0.0007     3.3900 H       
@<TRIPOS>BOND
   1    1    2 2
   2    1    5 1
   3    2    3 1
   4    2    6 1
   5    3    4 2
   6    4    5 1
   7    4   12 1
   8    6    7 2
   9    6   10 1
  10    7    8 1
  11    7   27 1
  12    8    9 2
  13    8   20 1
  14    9   10 1
  15    9   28 1
  16   10   29 1
  17   11   12 1
  18   11   16 1
  19   11   30 1
  20   11   31 1
  21   12   13 1
  22   12   32 1
  23   13   14 1
  24   13   33 1
  25   13   34 1
  26   14   15 1
  27   14   35 1
  28   14   36 1
  29   15   16 1
  30   15   37 1
  31   15   38 1
  32   16   17 am
  33   17   18 1
  34   17   19 2
  35   18   21 ar
  36   18   25 ar
  37   21   22 ar
  38   21   39 1
  39   22   23 ar
  40   22   40 1
  41   23   24 ar
  42   23   26 1
  43   24   25 ar
  44   24   41 1
  45   25   42 1

#	End of record

