#	Name: ASD05430286
#	Creating user name:	WinNT
#	Creation time:	15. 06. 2019 21:00

#	Modifying user name:	WinNT
#	Modification time:	15. 06. 2019 21:00

#	Program:	/corina/corina34_cracker 3.40 0067  02.08.2006

@<TRIPOS>MOLECULE
ASD05430286
  80   86    0    0    0
SMALL
NO_CHARGES


@<TRIPOS>ATOM
   1 C1             0.1941     1.1453    -1.0803 C.ar    
   2 C2             0.0195    -0.0164    -0.3184 C.ar    
   3 C3             1.0283    -0.4651     0.5211 C.ar    
   4 C4             2.2163     0.2261     0.6171 C.ar    
   5 C5             2.4021     1.3911    -0.1361 C.ar    
   6 C6             1.3851     1.8417    -0.9760 C.ar    
   7 C7             4.8883    -0.0287    -0.1278 C.3     
   8 C8             4.8361     1.4743     0.0332 C.2     
   9 C9             3.6675     2.1376    -0.0419 C.2     
  10 C10            6.3014    -0.4495    -0.5420 C.3     
  11 C11            7.1193     0.6020    -1.3007 C.3     
  12 N12            7.2063     1.8095    -0.4791 N.pl3   
  13 C13            6.0997     2.1922     0.2750 C.2     
  14 N14            6.1942     3.1303     1.1613 N.2     
  15 C15            8.2662     3.7971    -1.3862 C.ar    
  16 C16            9.3418     4.2042    -2.1538 C.ar    
  17 C17            7.0537     4.4526    -1.4907 C.ar    
  18 C18            6.9152     5.5158    -2.3629 C.ar    
  19 C19            7.9914     5.9243    -3.1320 C.ar    
  20 C20            9.2056     5.2669    -3.0265 C.ar    
  21 N21           -1.1832    -0.7306    -0.4044 N.pl3   
  22 C22           -2.4363    -0.2181    -0.2940 C.2     
  23 C23           -1.3174    -2.0775    -0.6217 C.2     
  24 C24           -2.6380    -2.3414    -0.6316 C.2     
  25 N25           -3.2965    -1.1905    -0.4297 N.2     
  26 C26           -3.2672    -3.6951    -0.8380 C.3     
  27 Si27          10.6591     5.8169    -4.0629 Si      
  28 C28           11.6311     7.1069    -3.1345 C.3     
  29 C29           11.7545     4.3535    -4.4225 C.3     
  30 C30           10.0414     6.5389    -5.6654 C.3     
  31 C31            8.4142     2.6340    -0.4394 C.3     
  32 C32            8.5977     3.1527     0.9908 C.3     
  33 O33            7.4063     3.7945     1.4336 O.3     
  34 F34            7.8570     6.9631    -3.9852 F       
  35 C35            7.0617    -1.3863     0.3987 C.3     
  36 C36            6.5135    -1.9149    -0.9283 C.3     
  37 C37           -0.2434     3.1057    -2.1646 C.3     
  38 O38           -0.6507     1.7408    -1.9676 O.3     
  39 C39            1.2773     3.0503    -1.8853 C.3     
  40 F40            1.7078     4.2090    -1.2301 F       
  41 F41            1.9961     2.8512    -3.0690 F       
  42 C42           12.1385     6.5140    -1.8184 C.3     
  43 C43           12.9451     4.8040    -5.2715 C.3     
  44 H44            0.8814    -1.3624     1.1039 H       
  45 H45            2.9998    -0.1290     1.2702 H       
  46 H46            4.6301    -0.5046     0.8182 H       
  47 H47            4.1780    -0.3368    -0.8951 H       
  48 H48            3.6579     3.2175    -0.0331 H       
  49 H49            8.1210     0.2174    -1.4929 H       
  50 H50            6.6276     0.8366    -2.2448 H       
  51 H51           10.2887     3.6915    -2.0711 H       
  52 H52            6.2142     4.1335    -0.8909 H       
  53 H53            5.9676     6.0275    -2.4447 H       
  54 H54           -2.6800     0.8199    -0.1221 H       
  55 H55           -0.5176    -2.7902    -0.7592 H       
  56 H56           -3.3932    -4.1879     0.1260 H       
  57 H57           -4.2401    -3.5747    -1.3145 H       
  58 H58           -2.6233    -4.3017    -1.4748 H       
  59 H59           12.4792     7.4278    -3.7392 H       
  60 H60           10.9902     7.9631    -2.9240 H       
  61 H61           12.1160     3.9311    -3.4850 H       
  62 H62           11.1859     3.5988    -4.9658 H       
  63 H63            9.4004     7.3951    -5.4549 H       
  64 H64           10.8895     6.8598    -6.2701 H       
  65 H65            9.4727     5.7841    -6.2086 H       
  66 H66            9.2779     2.0341    -0.7262 H       
  67 H67            8.8255     2.3168     1.6522 H       
  68 H68            9.4224     3.8652     1.0141 H       
  69 H69            8.1403    -1.2515     0.4796 H       
  70 H70            6.5572    -1.7002     1.3125 H       
  71 H71            5.6482    -2.5765    -0.8875 H       
  72 H72            7.2313    -2.1277    -1.7204 H       
  73 H73           -0.4368     3.4226    -3.1894 H       
  74 H74           -0.7430     3.7644    -1.4543 H       
  75 H75           12.7794     5.6578    -2.0289 H       
  76 H76           12.7071     7.2687    -1.2752 H       
  77 H77           11.2903     6.1930    -1.2137 H       
  78 H78           12.5836     5.2265    -6.2090 H       
  79 H79           13.5137     5.5588    -4.7282 H       
  80 H80           13.5860     3.9479    -5.4819 H       
@<TRIPOS>BOND
   1    1    2 ar
   2    1    6 ar
   3    1   38 1
   4    2    3 ar
   5    2   21 1
   6    3    4 ar
   7    3   44 1
   8    4    5 ar
   9    4   45 1
  10    5    6 ar
  11    5    9 1
  12    6   39 1
  13    7    8 1
  14    7   10 1
  15    7   46 1
  16    7   47 1
  17    8    9 2
  18    8   13 1
  19    9   48 1
  20   10   11 1
  21   10   35 1
  22   10   36 1
  23   11   12 1
  24   11   49 1
  25   11   50 1
  26   12   13 1
  27   12   31 1
  28   13   14 2
  29   14   33 1
  30   15   16 ar
  31   15   17 ar
  32   15   31 1
  33   16   20 ar
  34   16   51 1
  35   17   18 ar
  36   17   52 1
  37   18   19 ar
  38   18   53 1
  39   19   20 ar
  40   19   34 1
  41   20   27 1
  42   21   22 1
  43   21   23 1
  44   22   25 2
  45   22   54 1
  46   23   24 2
  47   23   55 1
  48   24   25 1
  49   24   26 1
  50   26   56 1
  51   26   57 1
  52   26   58 1
  53   27   28 1
  54   27   29 1
  55   27   30 1
  56   28   42 1
  57   28   59 1
  58   28   60 1
  59   29   43 1
  60   29   61 1
  61   29   62 1
  62   30   63 1
  63   30   64 1
  64   30   65 1
  65   31   32 1
  66   31   66 1
  67   32   33 1
  68   32   67 1
  69   32   68 1
  70   35   36 1
  71   35   69 1
  72   35   70 1
  73   36   71 1
  74   36   72 1
  75   37   38 1
  76   37   39 1
  77   37   73 1
  78   37   74 1
  79   39   40 1
  80   39   41 1
  81   42   75 1
  82   42   76 1
  83   42   77 1
  84   43   78 1
  85   43   79 1
  86   43   80 1

#	End of record

