#	Name: ASD01910190
#	Creating user name:	WinNT
#	Creation time:	15. 06. 2019 19:55

#	Modifying user name:	WinNT
#	Modification time:	15. 06. 2019 19:55

#	Program:	/corina/corina34_cracker 3.40 0067  02.08.2006

@<TRIPOS>MOLECULE
ASD01910190
  39   40    0    0    0
SMALL
NO_CHARGES


@<TRIPOS>ATOM
   1 C1            -0.2197     1.3791     0.0974 C.ar    
   2 C2             0.0359     0.0416     0.3298 C.ar    
   3 C3             1.3430    -0.4295     0.3193 C.ar    
   4 C4             2.3920     0.4448     0.0752 C.ar    
   5 C5             2.1319     1.7880    -0.1579 C.ar    
   6 C6             0.8228     2.2527    -0.1461 C.ar    
   7 N7             3.1866     2.6728    -0.4040 N.am    
   8 C8             4.2600     2.2625    -1.1082 C.2     
   9 C9             5.3273     3.2242    -1.4561 C.ar    
  10 N10            1.6010    -1.7844     0.5552 N.am    
  11 C11            0.7223    -2.7195     0.1430 C.2     
  12 C12            6.4402     2.8025    -2.1852 C.ar    
  13 C13            7.4331     3.7048    -2.5074 C.ar    
  14 C14            7.3281     5.0253    -2.1092 C.ar    
  15 C15            6.2267     5.4509    -1.3854 C.ar    
  16 C16            5.2237     4.5592    -1.0617 C.ar    
  17 O17           -0.2450    -2.3954    -0.5129 O.2     
  18 O18            4.3505     1.1016    -1.4573 O.2     
  19 C19            0.9418    -4.1678     0.4970 C.3     
  20 Cl20           6.1039     7.1103    -0.8902 Cl      
  21 C21            0.9605    -4.3236     2.0189 C.3     
  22 C22           -0.1912    -5.0132    -0.0883 C.3     
  23 H23           -1.2369     1.7419     0.1016 H       
  24 H24           -0.7811    -0.6386     0.5201 H       
  25 H25            3.4089     0.0811     0.0669 H       
  26 H26            0.6197     3.2977    -0.3277 H       
  27 H27            3.1456     3.5817    -0.0678 H       
  28 H28            2.4123    -2.0507     1.0155 H       
  29 H29            6.5242     1.7717    -2.4964 H       
  30 H30            8.2945     3.3792    -3.0716 H       
  31 H31            8.1084     5.7273    -2.3634 H       
  32 H32            4.3651     4.8918    -0.4972 H       
  33 H33            1.8943    -4.5021     0.0857 H       
  34 H34            1.7677    -3.7214     2.4359 H       
  35 H35            0.0080    -3.9894     2.4301 H       
  36 H36            1.1192    -5.3712     2.2749 H       
  37 H37           -0.2046    -4.9022    -1.1726 H       
  38 H38           -0.0325    -6.0607     0.1677 H       
  39 H39           -1.1437    -4.6789     0.3229 H       
@<TRIPOS>BOND
   1    1    2 ar
   2    1    6 ar
   3    1   23 1
   4    2    3 ar
   5    2   24 1
   6    3    4 ar
   7    3   10 1
   8    4    5 ar
   9    4   25 1
  10    5    6 ar
  11    5    7 1
  12    6   26 1
  13    7    8 am
  14    7   27 1
  15    8    9 1
  16    8   18 2
  17    9   12 ar
  18    9   16 ar
  19   10   11 am
  20   10   28 1
  21   11   17 2
  22   11   19 1
  23   12   13 ar
  24   12   29 1
  25   13   14 ar
  26   13   30 1
  27   14   15 ar
  28   14   31 1
  29   15   16 ar
  30   15   20 1
  31   16   32 1
  32   19   21 1
  33   19   22 1
  34   19   33 1
  35   21   34 1
  36   21   35 1
  37   21   36 1
  38   22   37 1
  39   22   38 1
  40   22   39 1

#	End of record

