#	Name: ASD01238004
#	Creating user name:	WinNT
#	Creation time:	15. 06. 2019 19:15

#	Modifying user name:	WinNT
#	Modification time:	15. 06. 2019 19:15

#	Program:	/corina/corina34_cracker 3.40 0067  02.08.2006

@<TRIPOS>MOLECULE
ASD01238004
  49   52    0    0    0
SMALL
NO_CHARGES


@<TRIPOS>ATOM
   1 N1            -0.0170     1.3988     0.0097 N.pl3   
   2 N2             0.7527     1.0409     1.1269 N.2     
   3 C3             1.7331     0.2707     0.7212 C.2     
   4 C4             1.6194     0.1151    -0.6589 C.2     
   5 C5             2.5110    -0.6821    -1.5780 C.3     
   6 C6             1.7711    -0.8954    -2.9043 C.3     
   7 C7             1.2306     0.4450    -3.4096 C.3     
   8 C8             0.0790     0.9056    -2.5075 C.3     
   9 C9             0.5355     0.8199    -1.0726 C.2     
  10 C10            2.7980    -0.3398     1.5954 C.3     
  11 F11            2.5207    -0.0543     2.9366 F       
  12 F12            2.8171    -1.7261     1.4081 F       
  13 F13            4.0450     0.1942     1.2532 F       
  14 C14           -1.1606     2.2094     0.0198 C.ar    
  15 C15           -2.2643     1.8647    -0.7486 C.ar    
  16 C16           -3.3897     2.6654    -0.7366 C.ar    
  17 C17           -3.4175     3.8097     0.0392 C.ar    
  18 C18           -2.3196     4.1559     0.8052 C.ar    
  19 C19           -1.1938     3.3556     0.8025 C.ar    
  20 C20           -4.6467     4.6814     0.0496 C.3     
  21 C21           -5.5793     4.2219     1.1406 C.2     
  22 N22           -6.7507     4.8584     1.3383 N.am    
  23 C23           -7.7496     4.5166     2.3615 C.3     
  24 C24           -8.9306     5.4957     2.1939 C.3     
  25 C25           -8.7826     5.9705     0.7242 C.3     
  26 C26           -7.2398     6.0166     0.5684 C.3     
  27 O27           -5.2756     3.2793     1.8408 O.2     
  28 H28            3.4363    -0.1348    -1.7577 H       
  29 H29            2.7369    -1.6472    -1.1243 H       
  30 H30            2.4587    -1.3107    -3.6411 H       
  31 H31            0.9425    -1.5867    -2.7509 H       
  32 H32            2.0273     1.1886    -3.3899 H       
  33 H33            0.8677     0.3286    -4.4308 H       
  34 H34           -0.1861     1.9352    -2.7475 H       
  35 H35           -0.7856     0.2589    -2.6569 H       
  36 H36           -2.2429     0.9715    -1.3553 H       
  37 H37           -4.2486     2.3978    -1.3341 H       
  38 H38           -2.3441     5.0504     1.4099 H       
  39 H39           -0.3385     3.6238     1.4050 H       
  40 H40           -4.3567     5.7163     0.2315 H       
  41 H41           -5.1514     4.6095    -0.9139 H       
  42 H42           -8.0936     3.4926     2.2163 H       
  43 H43           -7.3151     4.6266     3.3551 H       
  44 H44           -9.8810     4.9821     2.3394 H       
  45 H45           -8.8358     6.3358     2.8819 H       
  46 H46           -9.2269     5.2524     0.0350 H       
  47 H47           -9.2171     6.9608     0.5878 H       
  48 H48           -6.8419     6.9429     0.9828 H       
  49 H49           -6.9618     5.9193    -0.4811 H       
@<TRIPOS>BOND
   1    1    2 1
   2    1    9 1
   3    1   14 1
   4    2    3 2
   5    3    4 1
   6    3   10 1
   7    4    5 1
   8    4    9 2
   9    5    6 1
  10    5   28 1
  11    5   29 1
  12    6    7 1
  13    6   30 1
  14    6   31 1
  15    7    8 1
  16    7   32 1
  17    7   33 1
  18    8    9 1
  19    8   34 1
  20    8   35 1
  21   10   11 1
  22   10   12 1
  23   10   13 1
  24   14   15 ar
  25   14   19 ar
  26   15   16 ar
  27   15   36 1
  28   16   17 ar
  29   16   37 1
  30   17   18 ar
  31   17   20 1
  32   18   19 ar
  33   18   38 1
  34   19   39 1
  35   20   21 1
  36   20   40 1
  37   20   41 1
  38   21   22 am
  39   21   27 2
  40   22   23 1
  41   22   26 1
  42   23   24 1
  43   23   42 1
  44   23   43 1
  45   24   25 1
  46   24   44 1
  47   24   45 1
  48   25   26 1
  49   25   46 1
  50   25   47 1
  51   26   48 1
  52   26   49 1

#	End of record

