#	Name: ASD03092146
#	Creating user name:	WinNT
#	Creation time:	15. 06. 2019 20:32

#	Modifying user name:	WinNT
#	Modification time:	15. 06. 2019 20:32

#	Program:	/corina/corina34_cracker 3.40 0067  02.08.2006

@<TRIPOS>MOLECULE
ASD03092146
  45   47    0    0    0
SMALL
NO_CHARGES


@<TRIPOS>ATOM
   1 N1            -0.2168     1.4423    -0.4275 N.pl3   
   2 C2            -0.1607     0.0813    -0.4835 C.2     
   3 C3            -1.4057    -0.3924    -0.1824 C.2     
   4 C4            -2.2354     0.7093     0.0618 C.2     
   5 N5            -1.5242     1.8041    -0.0786 N.2     
   6 N6            -3.5920     0.6525     0.4040 N.pl3   
   7 C7            -4.3371     1.8299     0.5030 C.ar    
   8 C8            -4.0070     2.9299    -0.2784 C.ar    
   9 C9            -4.7466     4.0946    -0.1790 C.ar    
  10 C10           -5.8152     4.1647     0.6990 C.ar    
  11 C11           -5.4130     1.9007     1.3788 C.ar    
  12 C12            1.0304    -0.7331    -0.8106 C.ar    
  13 C13            0.8944     2.3627    -0.6810 C.3     
  14 C14            2.0938    -0.1900    -1.5436 C.ar    
  15 C15            3.1859    -0.9802    -1.8284 C.ar    
  16 N16            3.2417    -2.2350    -1.4218 N.ar    
  17 C17            2.2605    -2.7908    -0.7264 C.ar    
  18 C18            1.1272    -2.0620    -0.3918 C.ar    
  19 C19           -6.1462     3.0694     1.4790 C.ar    
  20 F20           -4.4259     5.1647    -0.9388 F       
  21 C21            0.8336     2.8486    -2.1305 C.3     
  22 N22            2.3694    -4.1168    -0.3224 N.pl3   
  23 C23            1.2891    -4.7393     0.4469 C.3     
  24 C24            1.6577    -6.1906     0.7614 C.3     
  25 O25            0.7962     3.4825     0.2013 O.3     
  26 F26           -7.1890     3.1407     2.3350 F       
  27 H27           -1.6984    -1.4311    -0.1404 H       
  28 H28           -4.0143    -0.2043     0.5723 H       
  29 H29           -3.1732     2.8759    -0.9627 H       
  30 H30           -6.3911     5.0751     0.7758 H       
  31 H31           -5.6741     1.0453     1.9843 H       
  32 H32            1.8394     1.8471    -0.5099 H       
  33 H33            2.0576     0.8352    -1.8815 H       
  34 H34            4.0086    -0.5671    -2.3931 H       
  35 H35            0.3291    -2.5180     0.1751 H       
  36 H36           -0.1114     3.3642    -2.3015 H       
  37 H37            1.6604     3.5334    -2.3191 H       
  38 H38            0.9085     1.9945    -2.8035 H       
  39 H39            3.1607    -4.6297    -0.5498 H       
  40 H40            1.1436    -4.1914     1.3779 H       
  41 H41            0.3683    -4.7164    -0.1359 H       
  42 H42            1.8032    -6.7384    -0.1696 H       
  43 H43            2.5786    -6.2134     1.3441 H       
  44 H44            0.8539    -6.6537     1.3337 H       
  45 H45           -0.0217     3.9891     0.1043 H       
@<TRIPOS>BOND
   1    1    2 1
   2    1   13 1
   3    1    5 1
   4    2    3 2
   5    2   12 1
   6    3    4 1
   7    3   27 1
   8    4    5 2
   9    4    6 1
  10    6    7 1
  11    6   28 1
  12    7    8 ar
  13    7   11 ar
  14    8    9 ar
  15    8   29 1
  16    9   10 ar
  17    9   20 1
  18   10   19 ar
  19   10   30 1
  20   11   19 ar
  21   11   31 1
  22   12   14 ar
  23   12   18 ar
  24   13   21 1
  25   13   25 1
  26   13   32 1
  27   14   15 ar
  28   14   33 1
  29   15   16 ar
  30   15   34 1
  31   16   17 ar
  32   17   18 ar
  33   17   22 1
  34   18   35 1
  35   19   26 1
  36   21   36 1
  37   21   37 1
  38   21   38 1
  39   22   23 1
  40   22   39 1
  41   23   24 1
  42   23   40 1
  43   23   41 1
  44   24   42 1
  45   24   43 1
  46   24   44 1
  47   25   45 1

#	End of record

