#	Name: ASD05720072
#	Creating user name:	WinNT
#	Creation time:	15. 06. 2019 21:01

#	Modifying user name:	WinNT
#	Modification time:	15. 06. 2019 21:01

#	Program:	/corina/corina34_cracker 3.40 0067  02.08.2006

@<TRIPOS>MOLECULE
ASD05720072
  37   40    0    0    0
SMALL
NO_CHARGES


@<TRIPOS>ATOM
   1 O1            -0.0549     1.2608     0.1849 O.3     
   2 C2             0.0520    -0.0561    -0.0240 C.2     
   3 N3             1.3159    -0.4855    -0.1411 N.am    
   4 C4             2.2239     0.6630     0.0013 C.3     
   5 C5             1.2745     1.8559     0.2246 C.3     
   6 O6            -0.9091    -0.7954    -0.1000 O.2     
   7 C7             2.9328     1.3765    -3.7142 C.3     
   8 C8             2.1021     1.1018    -2.4579 C.3     
   9 C9             3.0446     0.8607    -1.2747 C.3     
  10 C10            3.9618     2.0765    -1.1108 C.3     
  11 C11            4.7207     2.3136    -2.4191 C.3     
  12 O12            3.7856     2.4998    -3.4836 O.3     
  13 C13            3.3685    -3.3490    -0.7817 C.2     
  14 N14            2.9755    -2.0852    -0.5689 N.2     
  15 C15            1.7053    -1.8010    -0.3603 C.2     
  16 C16            0.7409    -2.8302    -0.3589 C.2     
  17 C17            1.1319    -4.1064    -0.5730 C.2     
  18 N18            2.4559    -4.3725    -0.7866 N.pl3   
  19 N19            3.1530    -5.5613    -1.0312 N.2     
  20 C20            4.4297    -5.2841    -1.1700 C.2     
  21 C21            4.6123    -3.9158    -1.0281 C.2     
  22 Br22           6.2573    -2.9908    -1.1457 Br      
  23 H23            2.8790     0.5287     0.8621 H       
  24 H24            1.3886     2.5896    -0.5734 H       
  25 H25            1.4590     2.3146     1.1960 H       
  26 H26            3.5393     0.5014    -3.9475 H       
  27 H27            2.2672     1.5911    -4.5503 H       
  28 H28            1.4653     1.9610    -2.2471 H       
  29 H29            1.4831     0.2187    -2.6164 H       
  30 H30            3.6460    -0.0287    -1.4629 H       
  31 H31            3.3627     2.9554    -0.8728 H       
  32 H32            4.6729     1.8905    -0.3059 H       
  33 H33            5.3431     3.2031    -2.3223 H       
  34 H34            5.3506     1.4507    -2.6354 H       
  35 H35           -0.3005    -2.6008    -0.1880 H       
  36 H36            0.4067    -4.9068    -0.5749 H       
  37 H37            5.2102    -6.0041    -1.3669 H       
@<TRIPOS>BOND
   1    1    2 1
   2    1    5 1
   3    2    3 am
   4    2    6 2
   5    3    4 1
   6    3   15 1
   7    4    5 1
   8    4    9 1
   9    4   23 1
  10    5   24 1
  11    5   25 1
  12    7    8 1
  13    7   12 1
  14    7   26 1
  15    7   27 1
  16    8    9 1
  17    8   28 1
  18    8   29 1
  19    9   10 1
  20    9   30 1
  21   10   11 1
  22   10   31 1
  23   10   32 1
  24   11   12 1
  25   11   33 1
  26   11   34 1
  27   13   14 1
  28   13   18 1
  29   13   21 2
  30   14   15 2
  31   15   16 1
  32   16   17 2
  33   16   35 1
  34   17   18 1
  35   17   36 1
  36   18   19 1
  37   19   20 2
  38   20   21 1
  39   20   37 1
  40   21   22 1

#	End of record

