#	Name: ASD08070571
#	Creating user name:	WinNT
#	Creation time:	15. 06. 2019 21:15

#	Modifying user name:	WinNT
#	Modification time:	15. 06. 2019 21:15

#	Program:	/corina/corina34_cracker 3.40 0067  02.08.2006

@<TRIPOS>MOLECULE
ASD08070571
  41   41    0    0    0
SMALL
NO_CHARGES


@<TRIPOS>ATOM
   1 C1            -0.0168     1.3851     0.0097 C.ar    
   2 C2             0.0021    -0.0041     0.0020 C.ar    
   3 C3             1.2141    -0.6867    -0.0132 C.ar    
   4 C4             2.4007     0.0134    -0.0203 C.ar    
   5 C5             2.3850     1.4109    -0.0126 C.ar    
   6 C6             1.1654     2.0921     0.0022 C.ar    
   7 C7             3.6537     2.1652    -0.0197 C.2     
   8 O8             4.7143     1.5707    -0.0322 O.2     
   9 N9             3.6366     3.5128    -0.0123 N.am    
  10 C10            4.8959     4.2614    -0.0193 C.3     
  11 C11            5.3785     4.4193    -1.4382 C.2     
  12 O12           -1.1651    -0.6969     0.0099 O.3     
  13 C13            4.6716     5.6425     0.5997 C.3     
  14 C14            4.3021     5.4857     2.0762 C.3     
  15 O15            6.5217     5.0766    -1.6890 O.3     
  16 C16            6.9254     5.1901    -3.0791 C.3     
  17 Cl17           1.2315    -2.4226    -0.0227 Cl      
  18 C18           -2.3728     0.0667     0.0259 C.3     
  19 O19            4.7365     3.9542    -2.3500 O.2     
  20 C20            4.0779     6.8668     2.6952 C.3     
  21 C21            3.7084     6.7100     4.1716 C.3     
  22 H22           -0.9598     1.9115     0.0170 H       
  23 H23            3.3415    -0.5168    -0.0314 H       
  24 H24            1.1494     3.1720     0.0078 H       
  25 H25            2.7905     3.9870    -0.0023 H       
  26 H26            5.6435     3.7203     0.5607 H       
  27 H27            5.5847     6.2316     0.5143 H       
  28 H28            3.8619     6.1490     0.0744 H       
  29 H29            3.3890     4.8966     2.1616 H       
  30 H30            5.1118     4.9792     2.6015 H       
  31 H31            6.1544     5.7191    -3.6394 H       
  32 H32            7.8631     5.7424    -3.1412 H       
  33 H33            7.0618     4.1941    -3.5004 H       
  34 H34           -2.3964     0.6904     0.9196 H       
  35 H35           -2.4141     0.7000    -0.8603 H       
  36 H36           -3.2291    -0.6077     0.0308 H       
  37 H37            4.9910     7.4559     2.6098 H       
  38 H38            3.2682     7.3733     2.1699 H       
  39 H39            2.7953     6.1209     4.2571 H       
  40 H40            4.5181     6.2035     4.6970 H       
  41 H41            3.5486     7.6939     4.6127 H       
@<TRIPOS>BOND
   1    1    2 ar
   2    1    6 ar
   3    1   22 1
   4    2    3 ar
   5    2   12 1
   6    3    4 ar
   7    3   17 1
   8    4    5 ar
   9    4   23 1
  10    5    6 ar
  11    5    7 1
  12    6   24 1
  13    7    8 2
  14    7    9 am
  15    9   10 1
  16    9   25 1
  17   10   11 1
  18   10   13 1
  19   10   26 1
  20   11   15 1
  21   11   19 2
  22   12   18 1
  23   13   14 1
  24   13   27 1
  25   13   28 1
  26   14   20 1
  27   14   29 1
  28   14   30 1
  29   15   16 1
  30   16   31 1
  31   16   32 1
  32   16   33 1
  33   18   34 1
  34   18   35 1
  35   18   36 1
  36   20   21 1
  37   20   37 1
  38   20   38 1
  39   21   39 1
  40   21   40 1
  41   21   41 1

#	End of record

