#	Name: ASD02560433
#	Creating user name:	WinNT
#	Creation time:	15. 06. 2019 20:25

#	Modifying user name:	WinNT
#	Modification time:	15. 06. 2019 20:25

#	Program:	/corina/corina34_cracker 3.40 0067  02.08.2006

@<TRIPOS>MOLECULE
ASD02560433
  40   43    0    0    0
SMALL
NO_CHARGES


@<TRIPOS>ATOM
   1 C1             0.0948     0.9616     1.0932 C.2     
   2 C2             0.2459    -0.4366     1.1000 C.2     
   3 C3             1.4327    -0.9951     0.7892 C.2     
   4 N4             2.5072    -0.2119     0.4627 N.pl3   
   5 C5             2.3895     1.1592     0.4475 C.2     
   6 C6             1.1514     1.7539     0.7714 C.2     
   7 C7             3.7946    -0.5138     0.1148 C.2     
   8 C8             4.4397     0.6849    -0.1067 C.2     
   9 N9             3.5568     1.6784     0.1044 N.2     
  10 C10            5.8567     0.8500    -0.5069 C.ar    
  11 N11            4.3492    -1.7893     0.0051 N.3     
  12 C12            3.3173    -2.8256     0.1433 C.3     
  13 C13            3.7784    -4.1234    -0.5430 C.3     
  14 C14            6.1940     1.7134    -1.5502 C.ar    
  15 C15            7.5162     1.8626    -1.9182 C.ar    
  16 C16            3.1062    -3.1659     1.6331 C.3     
  17 C17            2.8555    -4.6943     1.6418 C.3     
  18 C18            3.8314    -5.2070     0.5537 C.3     
  19 C19            6.8591     0.1478     0.1610 C.ar    
  20 C20            8.1772     0.3056    -0.2164 C.ar    
  21 C21            8.5052     1.1580    -1.2552 C.ar    
  22 Br22           4.8432     2.6761    -2.4581 Br      
  23 H23           -0.8592     1.4045     1.3386 H       
  24 H24           -0.5934    -1.0663     1.3561 H       
  25 H25            1.5370    -2.0700     0.7981 H       
  26 H26            1.0445     2.8286     0.7639 H       
  27 H27            4.8506    -1.8919    -0.8644 H       
  28 H28            2.3818    -2.4819    -0.2981 H       
  29 H29            3.0662    -4.4099    -1.3168 H       
  30 H30            4.7678    -3.9842    -0.9786 H       
  31 H31            7.7789     2.5304    -2.7254 H       
  32 H32            3.9983    -2.9224     2.2101 H       
  33 H33            2.2395    -2.6349     2.0266 H       
  34 H34            3.1024    -5.1207     2.6140 H       
  35 H35            1.8235    -4.9180     1.3714 H       
  36 H36            3.4939    -6.1655     0.1595 H       
  37 H37            4.8406    -5.2931     0.9564 H       
  38 H38            6.6046    -0.5181     0.9723 H       
  39 H39            8.9544    -0.2377     0.3006 H       
  40 H40            9.5382     1.2777    -1.5468 H       
@<TRIPOS>BOND
   1    1    2 1
   2    1    6 2
   3    1   23 1
   4    2    3 2
   5    2   24 1
   6    3    4 1
   7    3   25 1
   8    4    5 1
   9    4    7 1
  10    5    6 1
  11    5    9 2
  12    6   26 1
  13    7    8 2
  14    7   11 1
  15    8    9 1
  16    8   10 1
  17   10   19 ar
  18   10   14 ar
  19   11   12 1
  20   11   27 1
  21   12   13 1
  22   12   16 1
  23   12   28 1
  24   13   18 1
  25   13   29 1
  26   13   30 1
  27   14   22 1
  28   14   15 ar
  29   15   21 ar
  30   15   31 1
  31   16   17 1
  32   16   32 1
  33   16   33 1
  34   17   18 1
  35   17   34 1
  36   17   35 1
  37   18   36 1
  38   18   37 1
  39   19   20 ar
  40   19   38 1
  41   20   21 ar
  42   20   39 1
  43   21   40 1

#	End of record

