#	Name: ASD01911452
#	Creating user name:	WinNT
#	Creation time:	15. 06. 2019 19:57

#	Modifying user name:	WinNT
#	Modification time:	15. 06. 2019 19:57

#	Program:	/corina/corina34_cracker 3.40 0067  02.08.2006

@<TRIPOS>MOLECULE
ASD01911452
  28   29    0    0    0
SMALL
NO_CHARGES


@<TRIPOS>ATOM
   1 C1            -0.0189     1.5406     0.0105 C.3     
   2 C2             0.0021    -0.0041     0.0020 C.3     
   3 N3             1.2905    -0.3814     0.5948 N.am    
   4 C4             1.4904     1.8764    -0.0021 C.3     
   5 C5             1.5877    -1.6511     1.0884 C.ar    
   6 C6             0.6655    -2.6809     0.9398 C.ar    
   7 C7             0.9729    -3.9362     1.4337 C.ar    
   8 C8             2.1979    -4.1190     2.0622 C.ar    
   9 C9             3.0660    -3.0506     2.1747 C.ar    
  10 N10            2.7471    -1.8660     1.6892 N.ar    
  11 I11            2.7230    -5.9953     2.8323 I       
  12 C12           -0.7116     2.0857    -1.2401 C.3     
  13 C13            2.1475     0.6541     0.6002 C.2     
  14 O14            3.2822     0.6145     1.0266 O.2     
  15 C15           -0.6875     2.0721     1.2799 C.3     
  16 H16           -0.8187    -0.3957     0.6029 H       
  17 H17           -0.0665    -0.3766    -1.0200 H       
  18 H18            1.8381     2.0322    -1.0234 H       
  19 H19            1.6904     2.7569     0.6085 H       
  20 H20           -0.2783    -2.5033     0.4457 H       
  21 H21            0.2761    -4.7552     1.3331 H       
  22 H22            4.0196    -3.1876     2.6629 H       
  23 H23           -1.7386     1.7221    -1.2742 H       
  24 H24           -0.7127     3.1752    -1.2091 H       
  25 H25           -0.1769     1.7480    -2.1279 H       
  26 H26           -0.1361     1.7250     2.1537 H       
  27 H27           -0.6891     3.1619     1.2606 H       
  28 H28           -1.7137     1.7081     1.3297 H       
@<TRIPOS>BOND
   1    1    2 1
   2    1    4 1
   3    1   12 1
   4    1   15 1
   5    2    3 1
   6    2   16 1
   7    2   17 1
   8    3    5 1
   9    3   13 am
  10    4   13 1
  11    4   18 1
  12    4   19 1
  13    5    6 ar
  14    5   10 ar
  15    6    7 ar
  16    6   20 1
  17    7    8 ar
  18    7   21 1
  19    8    9 ar
  20    8   11 1
  21    9   10 ar
  22    9   22 1
  23   12   23 1
  24   12   24 1
  25   12   25 1
  26   13   14 2
  27   15   26 1
  28   15   27 1
  29   15   28 1

#	End of record

