#	Name: ASD01048003
#	Creating user name:	WinNT
#	Creation time:	15. 06. 2019 18:58

#	Modifying user name:	WinNT
#	Modification time:	15. 06. 2019 18:58

#	Program:	/corina/corina34_cracker 3.40 0067  02.08.2006

@<TRIPOS>MOLECULE
ASD01048003
  43   45    0    0    0
SMALL
NO_CHARGES


@<TRIPOS>ATOM
   1 C1            -0.4756    -0.0226     0.6259 C.ar    
   2 C2            -0.1218    -1.2088    -0.0007 C.ar    
   3 C3             1.2120    -1.5589    -0.1179 C.ar    
   4 C4             2.2013    -0.7132     0.3968 C.ar    
   5 C5             1.8373     0.4767     1.0243 C.ar    
   6 C6             0.5053     0.8171     1.1369 C.ar    
   7 O7            -1.7856     0.3212     0.7350 O.3     
   8 O8             1.5601    -2.7205    -0.7304 O.3     
   9 N9             5.5327    -2.2262     0.3075 N.pl3   
  10 N10            4.1540    -2.2548     0.5399 N.2     
  11 C11            3.6311    -1.0821     0.2753 C.2     
  12 C12            4.7191    -0.2019    -0.1638 C.ar    
  13 C13            4.7826     1.1327    -0.5720 C.ar    
  14 C14            5.9844     1.6739    -0.9285 C.ar    
  15 C15            7.1437     0.9093    -0.8893 C.ar    
  16 C16            7.1059    -0.3978    -0.4941 C.ar    
  17 C17            5.8935    -0.9756    -0.1239 C.ar    
  18 C18            8.3730    -1.2129    -0.4585 C.3     
  19 F19            9.4656    -0.3894    -0.7504 F       
  20 F20            8.5347    -1.7681     0.8154 F       
  21 F21            8.2949    -2.2379    -1.4074 F       
  22 C22            6.4486    -3.3533     0.5005 C.3     
  23 C23            6.8601    -3.4237     1.9485 C.2     
  24 C24            6.5747    -4.4863     2.6596 C.2     
  25 C25            5.7197    -5.5791     2.0717 C.3     
  26 C26            7.1014    -4.6157     4.0657 C.3     
  27 H27           -0.8875    -1.8594    -0.3968 H       
  28 H28            2.5978     1.1319     1.4227 H       
  29 H29            0.2245     1.7395     1.6234 H       
  30 H30           -2.2113    -0.0022     1.5408 H       
  31 H31            1.7034    -2.6353    -1.6829 H       
  32 H32            3.8856     1.7332    -0.6057 H       
  33 H33            6.0343     2.7056    -1.2441 H       
  34 H34            8.0857     1.3533    -1.1751 H       
  35 H35            5.9485    -4.2801     0.2194 H       
  36 H36            7.3324    -3.2140    -0.1220 H       
  37 H37            7.3904    -2.5983     2.4000 H       
  38 H38            6.3443    -6.2539     1.4864 H       
  39 H39            5.2377    -6.1355     2.8755 H       
  40 H40            4.9586    -5.1382     1.4278 H       
  41 H41            6.3857    -4.1806     4.7632 H       
  42 H42            7.2462    -5.6695     4.3038 H       
  43 H43            8.0532    -4.0908     4.1469 H       
@<TRIPOS>BOND
   1    1    2 ar
   2    1    6 ar
   3    1    7 1
   4    2    3 ar
   5    2   27 1
   6    3    4 ar
   7    3    8 1
   8    4    5 ar
   9    4   11 1
  10    5    6 ar
  11    5   28 1
  12    6   29 1
  13    7   30 1
  14    8   31 1
  15    9   10 1
  16    9   17 1
  17    9   22 1
  18   10   11 2
  19   11   12 1
  20   12   13 ar
  21   12   17 ar
  22   13   14 ar
  23   13   32 1
  24   14   15 ar
  25   14   33 1
  26   15   16 ar
  27   15   34 1
  28   16   17 ar
  29   16   18 1
  30   18   19 1
  31   18   20 1
  32   18   21 1
  33   22   23 1
  34   22   35 1
  35   22   36 1
  36   23   24 2
  37   23   37 1
  38   24   25 1
  39   24   26 1
  40   25   38 1
  41   25   39 1
  42   25   40 1
  43   26   41 1
  44   26   42 1
  45   26   43 1

#	End of record

