#	Name: ASD01882294
#	Creating user name:	WinNT
#	Creation time:	15. 06. 2019 19:44

#	Modifying user name:	WinNT
#	Modification time:	15. 06. 2019 19:44

#	Program:	/corina/corina34_cracker 3.40 0067  02.08.2006

@<TRIPOS>MOLECULE
ASD01882294
  26   27    0    0    0
SMALL
NO_CHARGES


@<TRIPOS>ATOM
   1 C1            -0.0172     1.4145     0.0098 C.2     
   2 C2             0.0021    -0.0041     0.0020 C.2     
   3 C3             1.2328    -0.6594    -0.0133 C.2     
   4 C4             2.4042     0.1022    -0.0203 C.2     
   5 C5             2.3352     1.4564    -0.0120 C.2     
   6 N6             1.1419     2.0997     0.0024 N.am    
   7 C7            -1.2205    -0.7496     0.0102 C.1     
   8 N8            -2.1904    -1.3410     0.0166 N.1     
   9 O9            -1.0801     2.0114     0.0181 O.2     
  10 C10            1.1131     3.5643     0.0106 C.3     
  11 C11            1.1168     4.0665     1.4558 C.3     
  12 C12            1.0867     5.5962     1.4643 C.3     
  13 C13            0.9674     6.2929     2.8213 C.3     
  14 C14            2.2941     6.3232     2.0597 C.3     
  15 Br15           1.3152    -2.5486    -0.0236 Br      
  16 H16            3.3662    -0.3885    -0.0322 H       
  17 H17            3.2481     2.0334    -0.0172 H       
  18 H18            1.9908     3.9479    -0.5096 H       
  19 H19            0.2113     3.9128    -0.4928 H       
  20 H20            0.2391     3.6829     1.9760 H       
  21 H21            2.0186     3.7180     1.9592 H       
  22 H22            0.5877     6.0613     0.6142 H       
  23 H23            0.3903     7.2166     2.8638 H       
  24 H24            0.9104     5.6615     3.7079 H       
  25 H25            3.1099     5.7118     2.4453 H       
  26 H26            2.5897     7.2669     1.6012 H       
@<TRIPOS>BOND
   1    1    2 1
   2    1    6 am
   3    1    9 2
   4    2    3 2
   5    2    7 1
   6    3    4 1
   7    3   15 1
   8    4    5 2
   9    4   16 1
  10    5    6 1
  11    5   17 1
  12    6   10 1
  13    7    8 3
  14   10   11 1
  15   10   18 1
  16   10   19 1
  17   11   12 1
  18   11   20 1
  19   11   21 1
  20   12   13 1
  21   12   14 1
  22   12   22 1
  23   13   14 1
  24   13   23 1
  25   13   24 1
  26   14   25 1
  27   14   26 1

#	End of record

