#	Name: ASD08070112
#	Creating user name:	WinNT
#	Creation time:	15. 06. 2019 21:14

#	Modifying user name:	WinNT
#	Modification time:	15. 06. 2019 21:14

#	Program:	/corina/corina34_cracker 3.40 0067  02.08.2006

@<TRIPOS>MOLECULE
ASD08070112
  44   46    0    0    0
SMALL
NO_CHARGES


@<TRIPOS>ATOM
   1 C1            -0.0169     1.3939     0.0097 C.ar    
   2 C2             0.0021    -0.0041     0.0020 C.ar    
   3 C3             1.1623     2.1012     0.0022 C.ar    
   4 C4             2.3779     1.4313    -0.0135 C.ar    
   5 C5             2.4191     0.0707    -0.0212 C.ar    
   6 C6             1.2248    -0.6812    -0.0133 C.ar    
   7 C7             1.0436    -2.1238    -0.0188 C.2     
   8 C8            -0.2119    -2.5254    -0.0086 C.2     
   9 S9            -1.3185    -1.1660     0.0084 S.3     
  10 C10            2.2028    -3.0866    -0.0354 C.3     
  11 C11           -0.6414    -3.9699    -0.0125 C.3     
  12 N12           -0.7669    -4.4458     1.3674 N.am    
  13 C13           -1.1421    -5.7173     1.6102 C.2     
  14 O14           -1.3760    -6.4680     0.6859 O.2     
  15 C15           -1.2701    -6.2028     3.0179 C.2     
  16 N16           -1.6453    -7.4743     3.2607 N.am    
  17 O17           -1.0362    -5.4521     3.9422 O.2     
  18 C18           -1.7707    -7.9502     4.6406 C.3     
  19 C19           -2.2068    -9.4167     4.6366 C.3     
  20 C20           -2.3358    -9.9062     6.0561 C.ar    
  21 N21           -1.3126    -9.7925     6.8803 N.ar    
  22 C22           -3.5267   -10.4639     6.4805 C.ar    
  23 C23           -3.6351   -10.9113     7.7886 C.ar    
  24 C24           -2.5366   -10.7801     8.6239 C.ar    
  25 C25           -1.3797   -10.2068     8.1303 C.ar    
  26 H26           -0.9602     1.9197     0.0170 H       
  27 H27            1.1426     3.1810     0.0083 H       
  28 H28            3.2993     1.9946    -0.0200 H       
  29 H29            3.3723    -0.4370    -0.0334 H       
  30 H30            2.4927    -3.3240     0.9882 H       
  31 H31            1.9085    -4.0008    -0.5510 H       
  32 H32            3.0457    -2.6315    -0.5555 H       
  33 H33           -1.6031    -4.0617    -0.5173 H       
  34 H34            0.1029    -4.5689    -0.5371 H       
  35 H35           -0.5799    -3.8458     2.1062 H       
  36 H36           -1.8322    -8.0743     2.5219 H       
  37 H37           -0.8090    -7.8584     5.1454 H       
  38 H38           -2.5151    -7.3512     5.1652 H       
  39 H39           -3.1685    -9.5085     4.1318 H       
  40 H40           -1.4624   -10.0157     4.1120 H       
  41 H41           -4.3627   -10.5499     5.8021 H       
  42 H42           -4.5537   -11.3510     8.1481 H       
  43 H43           -2.5855   -11.1174     9.6487 H       
  44 H44           -0.5193   -10.1013     8.7745 H       
@<TRIPOS>BOND
   1    1    2 ar
   2    1    3 ar
   3    1   26 1
   4    2    6 ar
   5    2    9 1
   6    3    4 ar
   7    3   27 1
   8    4    5 ar
   9    4   28 1
  10    5    6 ar
  11    5   29 1
  12    6    7 1
  13    7    8 2
  14    7   10 1
  15    8    9 1
  16    8   11 1
  17   10   30 1
  18   10   31 1
  19   10   32 1
  20   11   12 1
  21   11   33 1
  22   11   34 1
  23   12   13 am
  24   12   35 1
  25   13   14 2
  26   13   15 1
  27   15   16 am
  28   15   17 2
  29   16   18 1
  30   16   36 1
  31   18   19 1
  32   18   37 1
  33   18   38 1
  34   19   20 1
  35   19   39 1
  36   19   40 1
  37   20   21 ar
  38   20   22 ar
  39   21   25 ar
  40   22   23 ar
  41   22   41 1
  42   23   24 ar
  43   23   42 1
  44   24   25 ar
  45   24   43 1
  46   25   44 1

#	End of record

