#	Name: ASD05740233
#	Creating user name:	WinNT
#	Creation time:	15. 06. 2019 21:03

#	Modifying user name:	WinNT
#	Modification time:	15. 06. 2019 21:03

#	Program:	/corina/corina34_cracker 3.40 0067  02.08.2006

@<TRIPOS>MOLECULE
ASD05740233
  65   70    0    0    0
SMALL
NO_CHARGES


@<TRIPOS>ATOM
   1 C1            -0.5326     2.9676    -0.4195 C.3     
   2 N2            -1.5535     3.2309     0.6041 N.3     
   3 C3            -2.6148     2.3250     0.4986 C.ar    
   4 C4            -3.6864     2.4051     1.3784 C.ar    
   5 C5            -4.7334     1.5112     1.2743 C.ar    
   6 C6            -4.7149     0.5316     0.2901 C.ar    
   7 C7            -3.6432     0.4511    -0.5894 C.ar    
   8 C8            -2.5993     1.3492    -0.4895 C.ar    
   9 N9            -5.7770    -0.3756     0.1849 N.pl3   
  10 C10           -7.0676     0.0383     0.4507 C.ar    
  11 N11           -7.2886     1.3255     0.6942 N.ar    
  12 N12           -8.0391    -0.8627     0.4480 N.ar    
  13 C13           -9.2905    -0.5007     0.6992 C.ar    
  14 C14           -9.5626     0.8589     0.9681 C.ar    
  15 C15           -8.5037     1.7738     0.9540 C.ar    
  16 N16          -10.3171    -1.4094     0.7030 N.am    
  17 C17          -11.5801    -1.0249     0.9593 C.2     
  18 C18          -11.9067     0.3186     1.2333 C.2     
  19 C19          -10.9357     1.2690     1.2458 C.2     
  20 C20          -10.0342    -2.8194     0.4235 C.3     
  21 O21          -12.4668    -1.8611     0.9541 O.2     
  22 C22           -9.9174    -3.5753     1.7220 C.ar    
  23 C23          -10.9439    -4.4041     2.1343 C.ar    
  24 C24           -0.9657     3.1989     1.9506 C.3     
  25 C25            0.1359     4.2569     2.0487 C.3     
  26 N26            1.1569     3.9936     1.0250 N.3     
  27 C27            0.5691     4.0256    -0.3215 C.3     
  28 C28          -10.8368    -5.0979     3.3249 C.ar    
  29 C29           -9.7032    -4.9634     4.1051 C.ar    
  30 C30           -8.6760    -4.1352     3.6952 C.ar    
  31 C31           -8.7795    -3.4443     2.4995 C.ar    
  32 C32          -12.1805    -4.5509     1.2855 C.3     
  33 F33           -7.7756    -2.6345     2.0975 F       
  34 C34            2.2710     4.9446     1.1357 C.3     
  35 C35          -12.6068    -5.9682     0.8976 C.3     
  36 C36          -13.4123    -5.1841     1.9355 C.3     
  37 H37           -0.1027     1.9790    -0.2585 H       
  38 H38           -0.9897     3.0091    -1.4082 H       
  39 H39           -3.7005     3.1665     2.1443 H       
  40 H40           -5.5667     1.5735     1.9585 H       
  41 H41           -3.6285    -0.3111    -1.3543 H       
  42 H42           -1.7658     1.2866    -1.1735 H       
  43 H43           -5.6060    -1.2944    -0.0748 H       
  44 H44           -8.6753     2.8209     1.1556 H       
  45 H45          -12.9317     0.5933     1.4344 H       
  46 H46          -11.1738     2.3014     1.4549 H       
  47 H47          -10.8444    -3.2416    -0.1710 H       
  48 H48           -9.0981    -2.8996    -0.1291 H       
  49 H49           -1.7385     3.4091     2.6899 H       
  50 H50           -0.5407     2.2129     2.1385 H       
  51 H51           -0.2939     5.2455     1.8876 H       
  52 H52            0.5931     4.2154     3.0373 H       
  53 H53            1.3419     3.8154    -1.0608 H       
  54 H54            0.1441     5.0116    -0.5094 H       
  55 H55          -11.6393    -5.7452     3.6463 H       
  56 H56           -9.6208    -5.5058     5.0355 H       
  57 H57           -7.7908    -4.0301     4.3050 H       
  58 H58          -12.3472    -3.7579     0.5565 H       
  59 H59            2.7308     4.8526     2.1197 H       
  60 H60            3.0121     4.7272     0.3666 H       
  61 H61            1.8967     5.9597     1.0031 H       
  62 H62          -13.0545    -6.1075    -0.0864 H       
  63 H63          -11.9930    -6.7944     1.2563 H       
  64 H64          -13.3284    -5.4944     2.9771 H       
  65 H65          -14.3899    -4.8075     1.6343 H       
@<TRIPOS>BOND
   1    1    2 1
   2    1   27 1
   3    1   37 1
   4    1   38 1
   5    2    3 1
   6    2   24 1
   7    3    4 ar
   8    3    8 ar
   9    4    5 ar
  10    4   39 1
  11    5    6 ar
  12    5   40 1
  13    6    7 ar
  14    6    9 1
  15    7    8 ar
  16    7   41 1
  17    8   42 1
  18    9   10 1
  19    9   43 1
  20   10   11 ar
  21   10   12 ar
  22   11   15 ar
  23   12   13 ar
  24   13   14 ar
  25   13   16 1
  26   14   15 ar
  27   14   19 1
  28   15   44 1
  29   16   17 am
  30   16   20 1
  31   17   18 1
  32   17   21 2
  33   18   19 2
  34   18   45 1
  35   19   46 1
  36   20   22 1
  37   20   47 1
  38   20   48 1
  39   22   23 ar
  40   22   31 ar
  41   23   28 ar
  42   23   32 1
  43   24   25 1
  44   24   49 1
  45   24   50 1
  46   25   26 1
  47   25   51 1
  48   25   52 1
  49   26   27 1
  50   26   34 1
  51   27   53 1
  52   27   54 1
  53   28   29 ar
  54   28   55 1
  55   29   30 ar
  56   29   56 1
  57   30   31 ar
  58   30   57 1
  59   31   33 1
  60   32   35 1
  61   32   36 1
  62   32   58 1
  63   34   59 1
  64   34   60 1
  65   34   61 1
  66   35   36 1
  67   35   62 1
  68   35   63 1
  69   36   64 1
  70   36   65 1

#	End of record

