#	Name: ASD05430535
#	Creating user name:	WinNT
#	Creation time:	15. 06. 2019 21:00

#	Modifying user name:	WinNT
#	Modification time:	15. 06. 2019 21:00

#	Program:	/corina/corina34_cracker 3.40 0067  02.08.2006

@<TRIPOS>MOLECULE
ASD05430535
  67   71    0    0    0
SMALL
NO_CHARGES


@<TRIPOS>ATOM
   1 C1            -0.0880     1.1771    -0.3890 C.ar    
   2 C2            -0.0158    -0.0181     0.3259 C.ar    
   3 C3            -1.1484    -0.5294     0.9465 C.ar    
   4 C4            -2.3485     0.1417     0.8587 C.ar    
   5 C5            -2.4283     1.3412     0.1439 C.ar    
   6 C6            -1.2871     1.8587    -0.4764 C.ar    
   7 C7            -4.8619     1.3704    -0.0467 C.2     
   8 C8            -3.7098     2.0594     0.0485 C.2     
   9 N9            -7.1205     1.6271    -0.9173 N.pl3   
  10 C10           -6.1639     2.0588     0.0005 C.2     
  11 O11            1.0225     1.6748    -0.9951 O.3     
  12 C12            0.8759     2.9032    -1.7103 C.3     
  13 C13            1.7883    -1.1746     1.5649 C.2     
  14 N14            1.2022    -0.7051     0.4180 N.pl3   
  15 C15            2.9406    -1.7680     1.1993 C.2     
  16 N16            3.0597    -1.6666    -0.1327 N.2     
  17 C17            2.0247    -1.0319    -0.6124 C.2     
  18 C18            3.9261    -2.4310     2.1268 C.3     
  19 C19           -6.8414     0.4099    -1.6785 C.3     
  20 C20           -6.1962    -0.6195    -0.7596 C.3     
  21 C21           -4.8589    -0.1312    -0.2114 C.3     
  22 C22           -8.3565     2.3895    -1.0734 C.3     
  23 C23           -8.7771     2.9145     0.3039 C.3     
  24 O24           -7.6961     3.6135     0.9125 O.3     
  25 N25           -6.4303     2.9963     0.8476 N.2     
  26 C26           -7.1405    -0.9052     0.4099 C.3     
  27 C27           -9.9678     3.8620     0.1437 C.3     
  28 O28          -11.0592     3.1587    -0.4530 O.3     
  29 C29          -10.3897     4.3876     1.5173 C.3     
  30 C30           -8.1239     3.5478    -2.0089 C.ar    
  31 C31           -9.0902     3.8920    -2.9357 C.ar    
  32 C32           -8.8781     4.9543    -3.7939 C.ar    
  33 C33           -7.6973     5.6740    -3.7251 C.ar    
  34 C34           -6.7302     5.3284    -2.7965 C.ar    
  35 C35           -6.9467     4.2690    -1.9359 C.ar    
  36 F36           -7.4887     6.7124    -4.5638 F       
  37 H37           -1.0882    -1.4556     1.4988 H       
  38 H38           -3.2277    -0.2586     1.3417 H       
  39 H39           -1.3443     2.7848    -1.0291 H       
  40 H40           -3.7253     3.1393     0.0550 H       
  41 H41            1.8344     3.1876    -2.1443 H       
  42 H42            0.1408     2.7755    -2.5049 H       
  43 H43            0.5405     3.6835    -1.0271 H       
  44 H44            1.4023    -1.0821     2.5693 H       
  45 H45            1.8513    -0.8051    -1.6539 H       
  46 H46            3.6682    -3.4842     2.2384 H       
  47 H47            4.9303    -2.3450     1.7116 H       
  48 H48            3.8928    -1.9436     3.1011 H       
  49 H49           -7.7728     0.0085    -2.0780 H       
  50 H50           -6.1617     0.6408    -2.4986 H       
  51 H51           -6.0335    -1.5415    -1.3178 H       
  52 H52           -4.0637    -0.4147    -0.9008 H       
  53 H53           -4.6764    -0.5977     0.7567 H       
  54 H54           -9.1379     1.7440    -1.4746 H       
  55 H55           -9.0675     2.0762     0.9371 H       
  56 H56           -8.0845    -1.2941     0.0280 H       
  57 H57           -6.6857    -1.6415     1.0726 H       
  58 H58           -7.3241     0.0164     0.9622 H       
  59 H59           -9.6829     4.6990    -0.4938 H       
  60 H60          -11.3660     2.3993     0.0612 H       
  61 H61           -9.5571     4.9241     1.9724 H       
  62 H62          -11.2379     5.0626     1.4032 H       
  63 H63          -10.6746     3.5506     2.1548 H       
  64 H64          -10.0110     3.3302    -2.9894 H       
  65 H65           -9.6330     5.2228    -4.5181 H       
  66 H66           -5.8087     5.8890    -2.7420 H       
  67 H67           -6.1925     3.9992    -1.2114 H       
@<TRIPOS>BOND
   1    1    2 ar
   2    1   11 1
   3    1    6 ar
   4    2    3 ar
   5    2   14 1
   6    3    4 ar
   7    3   37 1
   8    4    5 ar
   9    4   38 1
  10    5    6 ar
  11    5    8 1
  12    6   39 1
  13    7    8 2
  14    7   21 1
  15    7   10 1
  16    8   40 1
  17    9   10 1
  18    9   22 1
  19    9   19 1
  20   10   25 2
  21   11   12 1
  22   12   41 1
  23   12   42 1
  24   12   43 1
  25   13   14 1
  26   13   15 2
  27   13   44 1
  28   14   17 1
  29   15   16 1
  30   15   18 1
  31   16   17 2
  32   17   45 1
  33   18   46 1
  34   18   47 1
  35   18   48 1
  36   19   20 1
  37   19   49 1
  38   19   50 1
  39   20   26 1
  40   20   21 1
  41   20   51 1
  42   21   52 1
  43   21   53 1
  44   22   23 1
  45   22   30 1
  46   22   54 1
  47   23   24 1
  48   23   27 1
  49   23   55 1
  50   24   25 1
  51   26   56 1
  52   26   57 1
  53   26   58 1
  54   27   28 1
  55   27   29 1
  56   27   59 1
  57   28   60 1
  58   29   61 1
  59   29   62 1
  60   29   63 1
  61   30   31 ar
  62   30   35 ar
  63   31   32 ar
  64   31   64 1
  65   32   33 ar
  66   32   65 1
  67   33   34 ar
  68   33   36 1
  69   34   35 ar
  70   34   66 1
  71   35   67 1

#	End of record

