#	Name: ASD05920004
#	Creating user name:	WinNT
#	Creation time:	15. 06. 2019 21:04

#	Modifying user name:	WinNT
#	Modification time:	15. 06. 2019 21:04

#	Program:	/corina/corina34_cracker 3.40 0067  02.08.2006

@<TRIPOS>MOLECULE
ASD05920004
  51   52    0    0    0
SMALL
NO_CHARGES


@<TRIPOS>ATOM
   1 N1             1.0316     2.0244    -0.5757 N.am    
   2 C2             1.1489     0.6862    -0.5282 C.2     
   3 N3             0.0801    -0.1107    -0.3402 N.am    
   4 C4            -1.1812     0.4424    -0.1895 C.2     
   5 C5            -1.3173     1.8242    -0.2359 C.2     
   6 C6            -0.1693     2.6222    -0.4300 C.2     
   7 N7            -2.3993    -0.0690     0.0055 N.2     
   8 C8            -3.2787     0.8971     0.0830 C.2     
   9 N9            -2.6613     2.0861    -0.0599 N.pl3   
  10 C10           -3.2958     3.4063    -0.0339 C.3     
  11 C11           -3.5984     3.8460    -1.4432 C.2     
  12 N12           -4.1870     5.0379    -1.6655 N.am    
  13 O13           -3.3122     3.1274    -2.3773 O.2     
  14 C14           -4.4812     5.4653    -3.0356 C.3     
  15 C15           -5.1439     6.8441    -3.0084 C.3     
  16 C16           -5.4511     7.2905    -4.4392 C.3     
  17 N17           -6.0873     8.6144    -4.4132 N.3     
  18 C18           -6.1820     9.1797    -5.7658 C.3     
  19 C19           -7.4092     8.5507    -3.7755 C.3     
  20 C20            0.2511    -1.5650    -0.2952 C.3     
  21 O21            2.2480     0.1827    -0.6589 O.2     
  22 C22            2.2264     2.8465    -0.7826 C.3     
  23 O23           -0.2628     3.8358    -0.4739 O.2     
  24 C24           -7.8674     9.9638    -3.4094 C.3     
  25 C25           -4.8064     9.6862    -6.2042 C.3     
  26 H26           -4.3389     0.7618     0.2378 H       
  27 H27           -4.2228     3.3527     0.5369 H       
  28 H28           -2.6220     4.1241     0.4339 H       
  29 H29           -4.4159     5.6126    -0.9184 H       
  30 H30           -3.5542     5.5189    -3.6064 H       
  31 H31           -5.1550     4.7475    -3.5034 H       
  32 H32           -6.0709     6.7905    -2.4376 H       
  33 H33           -4.4701     7.5619    -2.5406 H       
  34 H34           -4.5240     7.3441    -5.0101 H       
  35 H35           -6.1249     6.5727    -4.9071 H       
  36 H36           -6.5234     8.4101    -6.4581 H       
  37 H37           -6.8907    10.0078    -5.7647 H       
  38 H38           -8.1246     8.1042    -4.4662 H       
  39 H39           -7.3481     7.9432    -2.8726 H       
  40 H40            1.3041    -1.8114    -0.4316 H       
  41 H41           -0.0880    -1.9411     0.6700 H       
  42 H42           -0.3355    -2.0246    -1.0907 H       
  43 H43            3.1000     2.2012    -0.8744 H       
  44 H44            2.1105     3.4330    -1.6941 H       
  45 H45            2.3576     3.5171     0.0667 H       
  46 H46           -8.8035     9.9096    -2.8537 H       
  47 H47           -7.1068    10.4444    -2.7941 H       
  48 H48           -8.0183    10.5441    -4.3197 H       
  49 H49           -4.5030    10.5142    -5.5636 H       
  50 H50           -4.0790     8.8785    -6.1230 H       
  51 H51           -4.8574    10.0267    -7.2384 H       
@<TRIPOS>BOND
   1    1    2 am
   2    1   22 1
   3    1    6 am
   4    2    3 am
   5    2   21 2
   6    3    4 1
   7    3   20 1
   8    4    5 2
   9    4    7 1
  10    5    6 1
  11    5    9 1
  12    6   23 2
  13    7    8 2
  14    8    9 1
  15    8   26 1
  16    9   10 1
  17   10   11 1
  18   10   27 1
  19   10   28 1
  20   11   12 am
  21   11   13 2
  22   12   14 1
  23   12   29 1
  24   14   15 1
  25   14   30 1
  26   14   31 1
  27   15   16 1
  28   15   32 1
  29   15   33 1
  30   16   17 1
  31   16   34 1
  32   16   35 1
  33   17   18 1
  34   17   19 1
  35   18   25 1
  36   18   36 1
  37   18   37 1
  38   19   24 1
  39   19   38 1
  40   19   39 1
  41   20   40 1
  42   20   41 1
  43   20   42 1
  44   22   43 1
  45   22   44 1
  46   22   45 1
  47   24   46 1
  48   24   47 1
  49   24   48 1
  50   25   49 1
  51   25   50 1
  52   25   51 1

#	End of record

