#	Name: ASD03740259
#	Creating user name:	WinNT
#	Creation time:	15. 06. 2019 20:47

#	Modifying user name:	WinNT
#	Modification time:	15. 06. 2019 20:47

#	Program:	/corina/corina34_cracker 3.40 0067  02.08.2006

@<TRIPOS>MOLECULE
ASD03740259
  57   60    0    0    0
SMALL
NO_CHARGES


@<TRIPOS>ATOM
   1 C1             0.0195     1.3143    -0.8939 C.ar    
   2 C2             0.0795     0.2496    -0.0128 C.ar    
   3 C3             1.1547     1.7247    -1.5693 C.ar    
   4 C4             1.2738    -0.4093     0.1971 C.ar    
   5 C5             2.3545     1.0732    -1.3672 C.ar    
   6 C6             8.3314     3.5145     0.2964 C.ar    
   7 C7             9.4358     4.3372     0.3404 C.ar    
   8 C8            10.8868     2.4394     0.0580 C.ar    
   9 C9             2.4209    -0.0001    -0.4807 C.ar    
  10 C10            8.4925     2.1341     0.1343 C.ar    
  11 C11           10.7148     3.8095     0.2250 C.ar    
  12 C12            9.7896     1.6192     0.0088 C.ar    
  13 C13            3.7074    -0.7043    -0.2593 C.2     
  14 C14            6.0992    -0.6706     0.0574 C.2     
  15 C15            4.9111     0.0391    -0.1517 C.2     
  16 C16            7.3920     0.0220     0.1810 C.2     
  17 C17            6.0086    -2.0854     0.1467 C.2     
  18 C18            4.3429    -6.4815     3.1559 C.3     
  19 C19            3.1856    -6.5605     0.9430 C.3     
  20 C20           11.5454     6.0265     0.4475 C.3     
  21 C21            4.5135    -4.5445     1.5870 C.3     
  22 C22            4.7259    -4.1382     0.1274 C.3     
  23 C23            4.4301    -6.0690     1.6851 C.3     
  24 N24            7.4086     1.3162     0.0914 N.2     
  25 N25            3.7279    -2.0110    -0.1583 N.2     
  26 N26            8.5303    -0.7409     0.3877 N.am    
  27 N27            4.8058    -2.6784     0.0334 N.am    
  28 O28            7.0108    -2.7561     0.3283 O.2     
  29 O29            9.9363    -0.3579    -1.6307 O.2     
  30 O30           11.0024    -0.5634     0.6283 O.2     
  31 O31            4.9105     1.3878    -0.2485 O.3     
  32 O32           11.7973     4.6305     0.2746 O.3     
  33 S33            9.9568    -0.1262    -0.2289 S.o2    
  34 H34           -0.9182     1.8242    -1.0584 H       
  35 H35           -0.8099    -0.0664     0.5122 H       
  36 H36            1.1021     2.5563    -2.2563 H       
  37 H37            1.3196    -1.2402     0.8855 H       
  38 H38            3.2401     1.3942    -1.8954 H       
  39 H39            7.3411     3.9348     0.3916 H       
  40 H40            9.3054     5.4020     0.4653 H       
  41 H41           11.8795     2.0240    -0.0326 H       
  42 H42            4.2834    -7.5676     3.2258 H       
  43 H43            5.2294    -6.1313     3.6846 H       
  44 H44            3.4536    -6.0393     3.6051 H       
  45 H45            2.2964    -6.1183     1.3922 H       
  46 H46            3.2478    -6.2667    -0.1048 H       
  47 H47            3.1262    -7.6466     1.0129 H       
  48 H48           10.9387     6.3915    -0.3812 H       
  49 H49           11.0134     6.1863     1.3853 H       
  50 H50           12.4920     6.5664     0.4702 H       
  51 H51            5.3489    -4.1868     2.1890 H       
  52 H52            3.5862    -4.1054     1.9552 H       
  53 H53            5.6532    -4.5772    -0.2408 H       
  54 H54            3.8905    -4.4958    -0.4746 H       
  55 H55            5.3193    -6.5112     1.2359 H       
  56 H56            8.5008    -1.5853     0.8642 H       
  57 H57            4.0275     1.7775    -0.3081 H       
@<TRIPOS>BOND
   1    1    2 ar
   2    1    3 ar
   3    1   34 1
   4    2    4 ar
   5    2   35 1
   6    3    5 ar
   7    3   36 1
   8    4    9 ar
   9    4   37 1
  10    5    9 ar
  11    5   38 1
  12    6    7 ar
  13    6   10 ar
  14    6   39 1
  15    7   11 ar
  16    7   40 1
  17    8   11 ar
  18    8   12 ar
  19    8   41 1
  20    9   13 1
  21   10   12 ar
  22   10   24 1
  23   11   32 1
  24   12   33 1
  25   13   15 1
  26   13   25 2
  27   14   15 2
  28   14   16 1
  29   14   17 1
  30   15   31 1
  31   16   24 2
  32   16   26 1
  33   17   27 am
  34   17   28 2
  35   18   23 1
  36   18   42 1
  37   18   43 1
  38   18   44 1
  39   19   23 1
  40   19   45 1
  41   19   46 1
  42   19   47 1
  43   20   32 1
  44   20   48 1
  45   20   49 1
  46   20   50 1
  47   21   22 1
  48   21   23 1
  49   21   51 1
  50   21   52 1
  51   22   27 1
  52   22   53 1
  53   22   54 1
  54   23   55 1
  55   25   27 1
  56   26   33 am
  57   26   56 1
  58   29   33 2
  59   30   33 2
  60   31   57 1

#	End of record

