#	Name: ASD02039142
#	Creating user name:	WinNT
#	Creation time:	15. 06. 2019 20:17

#	Modifying user name:	WinNT
#	Modification time:	15. 06. 2019 20:17

#	Program:	/corina/corina34_cracker 3.40 0067  02.08.2006

@<TRIPOS>MOLECULE
ASD02039142
  42   45    0    0    0
SMALL
NO_CHARGES


@<TRIPOS>ATOM
   1 N1            -0.0011     1.2804     0.2555 N.2     
   2 C2             0.0073    -0.0199     0.1290 C.2     
   3 N3             1.2987    -0.4141     0.1378 N.2     
   4 C4             2.0013     0.6840     0.2705 C.2     
   5 O5             1.1343     1.6990     0.3378 O.3     
   6 C6             3.5036     0.7836     0.3356 C.3     
   7 O7             4.0278     0.9454    -0.9839 O.3     
   8 C8             5.3780     1.0517    -1.1029 C.ar    
   9 N9            -1.1052    -0.8435     0.0081 N.pl3   
  10 C10           -2.3896    -0.3053     0.1282 C.ar    
  11 C11           -3.4557    -0.8921    -0.5424 C.ar    
  12 C12           -4.7239    -0.3593    -0.4221 C.ar    
  13 C13           -4.9349     0.7578     0.3650 C.ar    
  14 C14           -3.8753     1.3461     1.0353 C.ar    
  15 C15           -2.6035     0.8133     0.9225 C.ar    
  16 C16           -6.3204     1.3367     0.4934 C.3     
  17 F17           -7.2153     0.5779    -0.2686 F       
  18 F18           -6.7136     1.3121     1.8358 F       
  19 F19           -6.3186     2.6575     0.0321 F       
  20 F20           -4.0844     2.4377     1.8032 F       
  21 C21            6.1800     1.0005     0.0345 C.ar    
  22 C22            7.5498     1.1061    -0.0670 C.ar    
  23 C23            8.1437     1.2656    -1.3143 C.ar    
  24 C24            7.3368     1.3179    -2.4666 C.ar    
  25 C25            5.9477     1.2043    -2.3512 C.ar    
  26 N26            9.5142     1.3742    -1.4369 N.am    
  27 C27           10.0907     1.5294    -2.6415 C.2     
  28 C28            9.3264     1.5882    -3.8264 C.2     
  29 C29            7.9753     1.4871    -3.7734 C.2     
  30 O30           11.3041     1.6220    -2.7119 O.2     
  31 H31            3.7847     1.6417     0.9460 H       
  32 H32            3.9092    -0.1260     0.7787 H       
  33 H33           -0.9905    -1.7920    -0.1597 H       
  34 H34           -3.2924    -1.7645    -1.1578 H       
  35 H35           -5.5522    -0.8155    -0.9438 H       
  36 H36           -1.7769     1.2714     1.4453 H       
  37 H37            5.7237     0.8771     1.0055 H       
  38 H38            8.1621     1.0654     0.8217 H       
  39 H39            5.3241     1.2434    -3.2321 H       
  40 H40           10.0695     1.3384    -0.6423 H       
  41 H41            9.8195     1.7139    -4.7790 H       
  42 H42            7.3830     1.5304    -4.6754 H       
@<TRIPOS>BOND
   1    1    2 2
   2    1    5 1
   3    2    3 1
   4    2    9 1
   5    3    4 2
   6    4    5 1
   7    4    6 1
   8    6    7 1
   9    6   31 1
  10    6   32 1
  11    7    8 1
  12    8   21 ar
  13    8   25 ar
  14    9   10 1
  15    9   33 1
  16   10   11 ar
  17   10   15 ar
  18   11   12 ar
  19   11   34 1
  20   12   13 ar
  21   12   35 1
  22   13   14 ar
  23   13   16 1
  24   14   15 ar
  25   14   20 1
  26   15   36 1
  27   16   17 1
  28   16   18 1
  29   16   19 1
  30   21   22 ar
  31   21   37 1
  32   22   23 ar
  33   22   38 1
  34   23   24 ar
  35   23   26 1
  36   24   25 ar
  37   24   29 1
  38   25   39 1
  39   26   27 am
  40   26   40 1
  41   27   28 1
  42   27   30 2
  43   28   29 2
  44   28   41 1
  45   29   42 1

#	End of record

