#	Name: ASD01148155
#	Creating user name:	WinNT
#	Creation time:	15. 06. 2019 19:02

#	Modifying user name:	WinNT
#	Modification time:	15. 06. 2019 19:02

#	Program:	/corina/corina34_cracker 3.40 0067  02.08.2006

@<TRIPOS>MOLECULE
ASD01148155
  32   34    0    0    0
SMALL
NO_CHARGES


@<TRIPOS>ATOM
   1 C1            -0.0168     1.3872     0.0097 C.ar    
   2 C2             0.0021    -0.0041     0.0020 C.ar    
   3 C3             1.2195    -0.6601    -0.0132 C.ar    
   4 C4             2.3819     0.0999    -0.0202 C.ar    
   5 C5             2.2894     1.4770    -0.0120 C.ar    
   6 N6             1.1136     2.0763     0.0026 N.ar    
   7 N7            -1.2333     2.0595     0.0191 N.pl3   
   8 N8             3.7065    -0.5602    -0.0360 N.pl3   
   9 O9             3.7810    -1.7759    -0.0428 O.2     
  10 O10            4.7220     0.1123    -0.0421 O.2     
  11 C11           -3.6300     2.1368     0.6405 C.3     
  12 C12           -2.4881     1.3034     0.0209 C.3     
  13 C13           -2.9913     1.0718    -1.4198 C.3     
  14 C14           -4.5003     1.1477    -1.3294 C.ar    
  15 C15           -5.4752     0.7155    -2.2130 C.ar    
  16 C16           -6.8119     0.8940    -1.9150 C.ar    
  17 C17           -7.1789     1.5061    -0.7309 C.ar    
  18 C18           -6.2083     1.9377     0.1515 C.ar    
  19 C19           -4.8673     1.7596    -0.1456 C.ar    
  20 H20           -0.9214    -0.5640     0.0082 H       
  21 H21            1.2652    -1.7391    -0.0191 H       
  22 H22            3.1908     2.0718    -0.0174 H       
  23 H23           -1.2515     3.0293     0.0244 H       
  24 H24           -3.7574     1.8806     1.6923 H       
  25 H25           -3.4230     3.2014     0.5321 H       
  26 H26           -2.3679     0.3576     0.5493 H       
  27 H27           -2.6125     1.8500    -2.0823 H       
  28 H28           -2.6826     0.0885    -1.7747 H       
  29 H29           -5.1893     0.2376    -3.1384 H       
  30 H30           -7.5696     0.5561    -2.6064 H       
  31 H31           -8.2237     1.6468    -0.4964 H       
  32 H32           -6.4958     2.4158     1.0763 H       
@<TRIPOS>BOND
   1    1    2 ar
   2    1    6 ar
   3    1    7 1
   4    2    3 ar
   5    2   20 1
   6    3    4 ar
   7    3   21 1
   8    4    5 ar
   9    4    8 1
  10    5    6 ar
  11    5   22 1
  12    7   12 1
  13    7   23 1
  14    8    9 2
  15    8   10 2
  16   11   12 1
  17   11   19 1
  18   11   24 1
  19   11   25 1
  20   12   13 1
  21   12   26 1
  22   13   14 1
  23   13   27 1
  24   13   28 1
  25   14   15 ar
  26   14   19 ar
  27   15   16 ar
  28   15   29 1
  29   16   17 ar
  30   16   30 1
  31   17   18 ar
  32   17   31 1
  33   18   19 ar
  34   18   32 1

#	End of record

