#	Name: ASD00840937
#	Creating user name:	WinNT
#	Creation time:	15. 06. 2019 18:40

#	Modifying user name:	WinNT
#	Modification time:	15. 06. 2019 18:40

#	Program:	/corina/corina34_cracker 3.40 0067  02.08.2006

@<TRIPOS>MOLECULE
ASD00840937
  87   92    0    0    0
SMALL
NO_CHARGES


@<TRIPOS>ATOM
   1 F1             6.0042    -1.9499    -2.0971 F       
   2 N2             0.9794     1.4231    -0.8147 N.ar    
   3 C3             1.2550     0.1326    -0.9022 C.ar    
   4 C4             1.1978    -0.6813     0.2222 C.ar    
   5 C5             0.8478    -0.1241     1.4395 C.ar    
   6 C6             0.5659     1.2344     1.4893 C.ar    
   7 C7             0.6427     1.9829     0.3319 C.ar    
   8 C8             1.5122    -2.1514     0.1175 C.3     
   9 C9             1.2552    -2.8441     1.4388 C.2     
  10 C10            0.6850    -2.7971    -0.9960 C.3     
  11 C11           -0.7766    -2.5108    -0.7664 C.2     
  12 N12           -1.7046    -3.0448    -1.5851 N.am    
  13 O13           -1.1179    -1.7999     0.1551 O.2     
  14 C14           -3.1219    -2.6830    -1.4469 C.3     
  15 C15           -3.9470    -3.9663    -1.3079 C.3     
  16 C16           -3.6467    -4.8915    -2.4894 C.3     
  17 C17           -2.1633    -5.2677    -2.4808 C.3     
  18 C18           -1.3173    -3.9950    -2.6367 C.3     
  19 N19           -4.4611    -6.1089    -2.3769 N.3     
  20 C20           -4.2879    -6.9692    -3.5558 C.3     
  21 C21           -5.0884    -8.2596    -3.3643 C.3     
  22 N22           -6.5056    -7.9283    -3.1613 N.3     
  23 C23           -6.6788    -7.0680    -1.9824 C.3     
  24 C24           -5.8783    -5.7776    -2.1739 C.3     
  25 H25           -6.8976    -7.4965    -3.9847 H       
  26 O26            0.1913    -2.9224     2.0161 O.2     
  27 N27            2.4268    -3.3561     1.8517 N.am    
  28 C28            2.9890    -2.3609    -0.1266 C.ar    
  29 C29            3.4645    -3.0904     0.9559 C.ar    
  30 C30            3.8321    -1.9788    -1.1459 C.ar    
  31 C31            5.1736    -2.3224    -1.0989 C.ar    
  32 C32            5.6603    -3.0503    -0.0236 C.ar    
  33 C33            4.8139    -3.4335     0.9990 C.ar    
  34 F34            6.9679    -3.3864     0.0242 F       
  35 C35            2.3407    -5.9040     2.8887 C.ar    
  36 C36            1.0864    -6.3283     2.4756 C.ar    
  37 C37            3.3738    -6.8143     3.0026 C.ar    
  38 C38            3.1584    -8.1470     2.7046 C.ar    
  39 C39            1.9088    -8.5725     2.2925 C.ar    
  40 C40            0.8726    -7.6665     2.1776 C.ar    
  41 H41            1.7430    -9.6141     2.0603 H       
  42 O42            0.0685    -5.4349     2.3632 O.3     
  43 C43           -1.1958    -5.9427     1.9323 C.3     
  44 C44           -2.2094    -4.7985     1.8664 C.3     
  45 S45            2.6182    -4.2043     3.2611 S.o2    
  46 O46            3.9896    -4.0898     3.6152 O.2     
  47 O47            1.5581    -3.8030     4.1181 O.2     
  48 O48            1.5965    -0.4017    -2.1017 O.3     
  49 C49            2.0589    -0.2762    -4.4705 C.3     
  50 C50            1.5287     0.4609    -3.2390 C.3     
  51 H51            0.7947    -0.7322     2.3304 H       
  52 H52            0.2892     1.7005     2.4234 H       
  53 H53            0.4248     3.0402     0.3653 H       
  54 H54            0.9888    -2.3865    -1.9589 H       
  55 H55            0.8492    -3.8746    -0.9923 H       
  56 H56           -3.2563    -2.0643    -0.5596 H       
  57 H57           -3.4466    -2.1337    -2.3306 H       
  58 H58           -3.6846    -4.4685    -0.3768 H       
  59 H59           -5.0082    -3.7175    -1.3012 H       
  60 H60           -3.8861    -4.3796    -3.4215 H       
  61 H61           -1.9177    -5.7577    -1.5386 H       
  62 H62           -1.9550    -5.9453    -3.3088 H       
  63 H63           -1.4961    -3.5552    -3.6179 H       
  64 H64           -0.2611    -4.2432    -2.5322 H       
  65 H65           -4.6466    -6.4470    -4.4428 H       
  66 H66           -3.2321    -7.2109    -3.6777 H       
  67 H67           -4.9847    -8.8865    -4.2499 H       
  68 H68           -4.7117    -8.7953    -2.4930 H       
  69 H69           -7.7346    -6.8263    -1.8605 H       
  70 H70           -6.3201    -7.5902    -1.0954 H       
  71 H71           -5.9820    -5.1507    -1.2883 H       
  72 H72           -6.2550    -5.2419    -3.0452 H       
  73 H73            3.4481    -1.4122    -1.9813 H       
  74 H74            5.1994    -4.0001     1.8337 H       
  75 H75            4.3506    -6.4845     3.3242 H       
  76 H76            3.9674    -8.8569     2.7936 H       
  77 H77           -0.1033    -7.9994     1.8563 H       
  78 H78           -1.0896    -6.3914     0.9447 H       
  79 H79           -1.5443    -6.6965     2.6383 H       
  80 H80           -2.3156    -4.3498     2.8540 H       
  81 H81           -1.8609    -4.0447     1.1604 H       
  82 H82           -3.1737    -5.1858     1.5377 H       
  83 H83            2.0892     0.4080    -5.3184 H       
  84 H84            3.0633    -0.6476    -4.2671 H       
  85 H85            1.4018    -1.1142    -4.7031 H       
  86 H86            0.4935     0.7561    -3.4100 H       
  87 H87            2.1346     1.3488    -3.0582 H       
@<TRIPOS>BOND
   1    1   31 1
   2    2    3 ar
   3    2    7 ar
   4    3    4 ar
   5    3   48 1
   6    4    5 ar
   7    4    8 1
   8    5    6 ar
   9    5   51 1
  10    6    7 ar
  11    6   52 1
  12    7   53 1
  13    8    9 1
  14    8   10 1
  15    8   28 1
  16    9   26 2
  17    9   27 am
  18   10   11 1
  19   10   54 1
  20   10   55 1
  21   11   12 am
  22   11   13 2
  23   12   14 1
  24   12   18 1
  25   14   15 1
  26   14   56 1
  27   14   57 1
  28   15   16 1
  29   15   58 1
  30   15   59 1
  31   16   17 1
  32   16   19 1
  33   16   60 1
  34   17   18 1
  35   17   61 1
  36   17   62 1
  37   18   63 1
  38   18   64 1
  39   19   20 1
  40   19   24 1
  41   20   21 1
  42   20   65 1
  43   20   66 1
  44   21   22 1
  45   21   67 1
  46   21   68 1
  47   22   23 1
  48   22   25 1
  49   23   24 1
  50   23   69 1
  51   23   70 1
  52   24   71 1
  53   24   72 1
  54   27   45 am
  55   27   29 1
  56   28   29 ar
  57   28   30 ar
  58   29   33 ar
  59   30   31 ar
  60   30   73 1
  61   31   32 ar
  62   32   33 ar
  63   32   34 1
  64   33   74 1
  65   35   36 ar
  66   35   37 ar
  67   35   45 1
  68   36   42 1
  69   36   40 ar
  70   37   38 ar
  71   37   75 1
  72   38   39 ar
  73   38   76 1
  74   39   40 ar
  75   39   41 1
  76   40   77 1
  77   42   43 1
  78   43   44 1
  79   43   78 1
  80   43   79 1
  81   44   80 1
  82   44   81 1
  83   44   82 1
  84   45   46 2
  85   45   47 2
  86   48   50 1
  87   49   50 1
  88   49   83 1
  89   49   84 1
  90   49   85 1
  91   50   86 1
  92   50   87 1

#	End of record

