#	Name: ASD00451030
#	Creating user name:	WinNT
#	Creation time:	15. 06. 2019 18:36

#	Modifying user name:	WinNT
#	Modification time:	15. 06. 2019 18:36

#	Program:	/corina/corina34_cracker 3.40 0067  02.08.2006

@<TRIPOS>MOLECULE
ASD00451030
  60   64    0    0    0
SMALL
NO_CHARGES


@<TRIPOS>ATOM
   1 C1             0.0411     1.1540    -0.0389 C.ar    
   2 C2            -0.0669    -0.2173    -0.1120 C.ar    
   3 C3             1.3153     1.7558    -0.1095 C.ar    
   4 N4            -1.1048     1.9445     0.0985 N.am    
   5 C5             1.0646    -1.0152    -0.2540 C.ar    
   6 C6             1.4670     3.1498    -0.0382 C.ar    
   7 C7             2.4626     0.9381    -0.2545 C.ar    
   8 C8             2.3116    -0.4618    -0.3248 C.ar    
   9 C9             2.7119     3.6967    -0.1092 C.ar    
  10 C10            3.7308     1.5375    -0.3247 C.ar    
  11 O11            3.4036    -1.2586    -0.4630 O.3     
  12 C12            3.8408     2.8924    -0.2524 C.ar    
  13 C13            4.1308    -1.5418     0.6481 C.ar    
  14 C14            5.3228    -2.2569     0.5607 C.ar    
  15 C15            3.7087    -1.1204     1.9071 C.ar    
  16 C16            6.0434    -2.5289     1.7239 C.ar    
  17 N17            6.0336    -2.8166    -0.4989 N.am    
  18 C18            4.4754    -1.4273     3.0132 C.ar    
  19 N19            7.1693    -3.2449     1.3368 N.am    
  20 N20            5.5984    -2.1108     2.8993 N.ar    
  21 C21            7.1384    -3.4032     0.0006 C.2     
  22 C22            8.2153    -3.7438     2.2330 C.3     
  23 O23            7.9798    -3.9876    -0.6560 O.2     
  24 C24           -2.2579     1.5676    -0.4886 C.2     
  25 O25           -2.2781     0.5981    -1.2222 O.2     
  26 N26           -3.3887     2.2652    -0.2625 N.am    
  27 C27           -4.6040     1.8224    -0.7998 C.ar    
  28 C28            5.6462    -2.7749    -1.9112 C.3     
  29 C29           -5.7877     2.0121    -0.0954 C.ar    
  30 C30           -6.9855     1.5733    -0.6296 C.ar    
  31 C31           -7.0057     0.9470    -1.8622 C.ar    
  32 C32           -5.8296     0.7570    -2.5641 C.ar    
  33 C33           -4.6303     1.1983    -2.0394 C.ar    
  34 F34           -5.7676     2.6237     1.1091 F       
  35 C35            6.2398    -1.5261    -2.5661 C.3     
  36 C36           -5.8570     0.0730    -3.9067 C.3     
  37 F37           -7.1740    -0.2744    -4.2263 F       
  38 F38           -5.3536     0.9402    -4.8822 F       
  39 F39           -5.0688    -1.0818    -3.8578 F       
  40 H40           -1.0417    -0.6791    -0.0580 H       
  41 H41           -1.0694     2.7640     0.6163 H       
  42 H42            0.9552    -2.0882    -0.3088 H       
  43 H43            0.6006     3.7851     0.0720 H       
  44 H44            2.8260     4.7692    -0.0542 H       
  45 H45            4.6145     0.9264    -0.4350 H       
  46 H46            4.8172     3.3507    -0.3066 H       
  47 H47            2.7922    -0.5596     2.0164 H       
  48 H48            4.1501    -1.1016     3.9902 H       
  49 H49            7.9556    -4.7468     2.5718 H       
  50 H50            9.1657    -3.7750     1.7003 H       
  51 H51            8.3029    -3.0809     3.0938 H       
  52 H52           -3.3608     3.0740     0.2723 H       
  53 H53            6.0218    -3.6641    -2.4174 H       
  54 H54            4.5594    -2.7443    -1.9891 H       
  55 H55           -7.9057     1.7196    -0.0835 H       
  56 H56           -7.9422     0.6052    -2.2775 H       
  57 H57           -3.7125     1.0492    -2.5888 H       
  58 H58            5.9516    -1.4950    -3.6169 H       
  59 H59            5.8642    -0.6369    -2.0599 H       
  60 H60            7.3266    -1.5567    -2.4882 H       
@<TRIPOS>BOND
   1    1    2 ar
   2    1    3 ar
   3    1    4 1
   4    2    5 ar
   5    2   40 1
   6    3    6 ar
   7    3    7 ar
   8    4   24 am
   9    4   41 1
  10    5    8 ar
  11    5   42 1
  12    6    9 ar
  13    6   43 1
  14    7    8 ar
  15    7   10 ar
  16    8   11 1
  17    9   12 ar
  18    9   44 1
  19   10   12 ar
  20   10   45 1
  21   11   13 1
  22   12   46 1
  23   13   15 ar
  24   13   14 ar
  25   14   16 ar
  26   14   17 1
  27   15   18 ar
  28   15   47 1
  29   16   19 1
  30   16   20 ar
  31   17   21 am
  32   17   28 1
  33   18   20 ar
  34   18   48 1
  35   19   22 1
  36   19   21 am
  37   21   23 2
  38   22   49 1
  39   22   50 1
  40   22   51 1
  41   24   25 2
  42   24   26 am
  43   26   27 1
  44   26   52 1
  45   27   29 ar
  46   27   33 ar
  47   28   35 1
  48   28   53 1
  49   28   54 1
  50   29   30 ar
  51   29   34 1
  52   30   31 ar
  53   30   55 1
  54   31   32 ar
  55   31   56 1
  56   32   33 ar
  57   32   36 1
  58   33   57 1
  59   35   58 1
  60   35   59 1
  61   35   60 1
  62   36   37 1
  63   36   38 1
  64   36   39 1

#	End of record

