#	Name: ASD02038796
#	Creating user name:	WinNT
#	Creation time:	15. 06. 2019 20:17

#	Modifying user name:	WinNT
#	Modification time:	15. 06. 2019 20:17

#	Program:	/corina/corina34_cracker 3.40 0067  02.08.2006

@<TRIPOS>MOLECULE
ASD02038796
  42   44    0    0    0
SMALL
NO_CHARGES


@<TRIPOS>ATOM
   1 C1            -1.2847    -0.8284     0.4560 C.2     
   2 C2            -0.0543    -0.0231     0.3006 C.2     
   3 N3             1.1376    -0.6350     0.1543 N.am    
   4 C4             1.2278    -2.0945     0.2450 C.3     
   5 C5             1.1987    -2.6866    -1.1405 C.ar    
   6 C6             2.3430     0.1592    -0.0954 C.3     
   7 O7            -0.1178     1.1908     0.3048 O.2     
   8 N8            -1.3540    -2.1719     0.4794 N.2     
   9 C9            -2.6132    -2.4934     0.6332 C.2     
  10 N10           -3.3198    -1.3502     0.7047 N.pl3   
  11 N11           -2.5041    -0.3581     0.6016 N.2     
  12 C12            2.3814    -3.0169    -1.7755 C.ar    
  13 C13            2.1441     1.0110    -1.3529 C.3     
  14 C14            3.3765     1.8950    -1.5612 C.3     
  15 O15            3.5803     2.7066    -0.4029 O.3     
  16 C16            3.8187     1.9646     0.7949 C.3     
  17 C17            2.6040     1.0834     1.0979 C.3     
  18 C18           -0.0107    -2.9044    -1.7733 C.ar    
  19 C19           -0.0387    -3.4475    -3.0443 C.ar    
  20 C20            1.1438    -3.7734    -3.6833 C.ar    
  21 C21            2.3552    -3.5604    -3.0470 C.ar    
  22 C22           -4.7713    -1.2505     0.8768 C.3     
  23 Cl23           3.8404    -3.9688    -3.8478 Cl      
  24 Cl24           1.1091    -4.4555    -5.2793 Cl      
  25 H25            2.1593    -2.3709     0.7388 H       
  26 H26            0.3843    -2.4755     0.8208 H       
  27 H27            3.1951    -0.5058    -0.2365 H       
  28 H28           -3.0131    -3.4949     0.6919 H       
  29 H29            3.3259    -2.8503    -1.2789 H       
  30 H30            2.0127     0.3597    -2.2169 H       
  31 H31            1.2616     1.6391    -1.2315 H       
  32 H32            4.2519     1.2659    -1.7229 H       
  33 H33            3.2225     2.5343    -2.4305 H       
  34 H34            4.6999     1.3365     0.6641 H       
  35 H35            3.9832     2.6541     1.6230 H       
  36 H36            1.7308     1.7130     1.2689 H       
  37 H37            2.8015     0.4839     1.9866 H       
  38 H38           -0.9343    -2.6504    -1.2745 H       
  39 H39           -0.9841    -3.6178    -3.5381 H       
  40 H40           -5.0095    -1.2143     1.9399 H       
  41 H41           -5.1331    -0.3436     0.3923 H       
  42 H42           -5.2511    -2.1194     0.4263 H       
@<TRIPOS>BOND
   1    1    2 1
   2    1    8 1
   3    1   11 2
   4    2    3 am
   5    2    7 2
   6    3    4 1
   7    3    6 1
   8    4    5 1
   9    4   25 1
  10    4   26 1
  11    5   12 ar
  12    5   18 ar
  13    6   13 1
  14    6   17 1
  15    6   27 1
  16    8    9 2
  17    9   10 1
  18    9   28 1
  19   10   11 1
  20   10   22 1
  21   12   21 ar
  22   12   29 1
  23   13   14 1
  24   13   30 1
  25   13   31 1
  26   14   15 1
  27   14   32 1
  28   14   33 1
  29   15   16 1
  30   16   17 1
  31   16   34 1
  32   16   35 1
  33   17   36 1
  34   17   37 1
  35   18   19 ar
  36   18   38 1
  37   19   20 ar
  38   19   39 1
  39   20   21 ar
  40   20   24 1
  41   21   23 1
  42   22   40 1
  43   22   41 1
  44   22   42 1

#	End of record

