#	Name: ASD01841041
#	Creating user name:	WinNT
#	Creation time:	15. 06. 2019 19:38

#	Modifying user name:	WinNT
#	Modification time:	15. 06. 2019 19:38

#	Program:	/corina/corina34_cracker 3.40 0067  02.08.2006

@<TRIPOS>MOLECULE
ASD01841041
  35   37    0    0    0
SMALL
NO_CHARGES


@<TRIPOS>ATOM
   1 C1            -0.0179     1.4707     0.0101 C.2     
   2 C2             0.0021    -0.0041     0.0020 C.ar    
   3 O3             1.0266     2.0928     0.0035 O.2     
   4 N4            -1.1941     2.1286     0.0193 N.am    
   5 S5            -2.6697     4.4977     0.0392 S.3     
   6 C6            -1.2129     3.5136     0.0269 C.2     
   7 N7            -0.1661     4.2630     0.0268 N.2     
   8 C8            -0.3466     5.5991     0.0355 C.ar    
   9 C9            -1.6946     5.9653     0.0436 C.ar    
  10 C10           -2.0608     7.3102     0.0528 C.ar    
  11 C11           -1.0963     8.2929     0.0536 C.ar    
  12 C12            0.2467     7.9471     0.0456 C.ar    
  13 C13            0.6285     6.6244     0.0373 C.ar    
  14 C14           -3.5190     7.6905     0.0615 C.3     
  15 O15            1.9490     6.3018     0.0296 O.3     
  16 C16            2.8814     7.3846     0.0320 C.3     
  17 C17            0.0232    -0.7142     1.2075 C.ar    
  18 C18            0.0419    -2.0961     1.1906 C.ar    
  19 C19            0.0398    -2.7770    -0.0132 C.ar    
  20 C20            0.0195    -2.0832    -1.2095 C.ar    
  21 C21           -0.0057    -0.7012    -1.2112 C.ar    
  22 F22           -0.0255    -0.0254    -2.3808 F       
  23 F23            0.0257    -0.0509     2.3845 F       
  24 H24           -2.0275     1.6322     0.0205 H       
  25 H25           -1.3857     9.3334     0.0600 H       
  26 H26            0.9993     8.7217     0.0462 H       
  27 H27           -3.8660     7.7764     1.0912 H       
  28 H28           -3.6483     8.6463    -0.4464 H       
  29 H29           -4.0975     6.9239    -0.4541 H       
  30 H30            2.7330     7.9899     0.9262 H       
  31 H31            3.8972     6.9894     0.0252 H       
  32 H32            2.7252     8.0005    -0.8537 H       
  33 H33            0.0585    -2.6458     2.1201 H       
  34 H34            0.0545    -3.8569    -0.0192 H       
  35 H35            0.0183    -2.6228    -2.1450 H       
@<TRIPOS>BOND
   1    1    2 1
   2    1    3 2
   3    1    4 am
   4    2   17 ar
   5    2   21 ar
   6    4    6 1
   7    4   24 1
   8    5    6 1
   9    5    9 1
  10    6    7 2
  11    7    8 1
  12    8    9 ar
  13    8   13 ar
  14    9   10 ar
  15   10   11 ar
  16   10   14 1
  17   11   12 ar
  18   11   25 1
  19   12   13 ar
  20   12   26 1
  21   13   15 1
  22   14   27 1
  23   14   28 1
  24   14   29 1
  25   15   16 1
  26   16   30 1
  27   16   31 1
  28   16   32 1
  29   17   18 ar
  30   17   23 1
  31   18   19 ar
  32   18   33 1
  33   19   20 ar
  34   19   34 1
  35   20   21 ar
  36   20   35 1
  37   21   22 1

#	End of record

