#	Name: ASD07931759
#	Creating user name:	WinNT
#	Creation time:	15. 06. 2019 21:13

#	Modifying user name:	WinNT
#	Modification time:	15. 06. 2019 21:13

#	Program:	/corina/corina34_cracker 3.40 0067  02.08.2006

@<TRIPOS>MOLECULE
ASD07931759
  60   64    0    0    0
SMALL
NO_CHARGES


@<TRIPOS>ATOM
   1 C1            -0.2975     1.3890     0.3124 C.2     
   2 C2            -0.1878    -0.0865     0.2979 C.2     
   3 N3             0.8220     2.1360     0.0232 N.am    
   4 N4             1.0359    -0.6474     0.4489 N.am    
   5 C5             2.1958     0.2313     0.6558 C.3     
   6 C6             2.0724     1.4327    -0.2932 C.3     
   7 C7            -1.4846     1.9889     0.6006 C.2     
   8 C8            -1.5928     3.3850     0.6174 C.2     
   9 C9            -0.4922     4.1492     0.3417 C.2     
  10 C10            0.7725     3.4795     0.0287 C.2     
  11 O11           -1.1754    -0.7810     0.1540 O.2     
  12 O12            1.7699     4.1336    -0.2241 O.2     
  13 C13            0.0625     6.3848     1.2101 C.2     
  14 N14           -0.2620     7.6120     0.9069 N.2     
  15 C15           -1.1039     7.6043    -0.1375 C.2     
  16 C16           -1.3129     6.3245    -0.5000 C.2     
  17 N17           -0.5744     5.5445     0.3526 N.pl3   
  18 C18           -1.7113     8.8183    -0.7917 C.3     
  19 C19            1.2002    -2.1026     0.4064 C.3     
  20 C20            0.2310    -2.7543     1.3947 C.3     
  21 O21           -0.4477    -2.2783    -1.3921 O.3     
  22 C22            0.9041    -2.6082    -1.0069 C.3     
  23 C23            1.7707    -1.8556    -2.0486 C.3     
  24 C24            0.9279    -2.0030    -3.3388 C.3     
  25 C25           -0.4939    -2.3076    -2.8285 C.3     
  26 C26           -1.4541    -1.2608    -3.3318 C.ar    
  27 C27           -2.2664    -1.5333    -4.4163 C.ar    
  28 C28           -3.1491    -0.5723    -4.8797 C.ar    
  29 C29           -3.2181     0.6615    -4.2559 C.ar    
  30 C30           -2.4045     0.9331    -3.1696 C.ar    
  31 C31           -1.5260    -0.0312    -2.7050 C.ar    
  32 C32           -4.1781     1.7084    -4.7596 C.3     
  33 F33           -5.4058     1.5697    -4.1033 F       
  34 F34           -3.6551     2.9810    -4.5064 F       
  35 F35           -4.3645     1.5463    -6.1366 F       
  36 F36           -2.4709     2.1368    -2.5598 F       
  37 F37           -3.9423    -0.8386    -5.9404 F       
  38 H38            2.2115     0.5803     1.6883 H       
  39 H39            3.1131    -0.3154     0.4370 H       
  40 H40            2.0484     1.0853    -1.3260 H       
  41 H41            2.9191     2.1041    -0.1494 H       
  42 H42           -2.3514     1.3825     0.8182 H       
  43 H43           -2.5381     3.8548     0.8458 H       
  44 H44            0.7291     6.0872     2.0060 H       
  45 H45           -1.9415     5.9786    -1.3072 H       
  46 H46           -1.0592     9.1632    -1.5941 H       
  47 H47           -2.6872     8.5597    -1.2026 H       
  48 H48           -1.8270     9.6103    -0.0517 H       
  49 H49            2.2239    -2.3607     0.6776 H       
  50 H50            0.3533    -3.8370     1.3631 H       
  51 H51            0.4420    -2.3941     2.4016 H       
  52 H52           -0.7927    -2.4962     1.1236 H       
  53 H53            1.0707    -3.6833    -1.0739 H       
  54 H54            1.8836    -0.8064    -1.7755 H       
  55 H55            2.7438    -2.3332    -2.1629 H       
  56 H56            0.9378    -1.0741    -3.9091 H       
  57 H57            1.3004    -2.8283    -3.9456 H       
  58 H58           -0.8064    -3.2946    -3.1692 H       
  59 H59           -2.2123    -2.4960    -4.9028 H       
  60 H60           -0.8940     0.1791    -1.8548 H       
@<TRIPOS>BOND
   1    1    2 1
   2    1    3 1
   3    1    7 2
   4    2    4 am
   5    2   11 2
   6    3    6 1
   7    3   10 am
   8    4    5 1
   9    4   19 1
  10    5    6 1
  11    5   38 1
  12    5   39 1
  13    6   40 1
  14    6   41 1
  15    7    8 1
  16    7   42 1
  17    8    9 2
  18    8   43 1
  19    9   10 1
  20    9   17 1
  21   10   12 2
  22   13   14 2
  23   13   17 1
  24   13   44 1
  25   14   15 1
  26   15   16 2
  27   15   18 1
  28   16   17 1
  29   16   45 1
  30   18   46 1
  31   18   47 1
  32   18   48 1
  33   19   20 1
  34   19   22 1
  35   19   49 1
  36   20   50 1
  37   20   51 1
  38   20   52 1
  39   21   25 1
  40   21   22 1
  41   22   23 1
  42   22   53 1
  43   23   24 1
  44   23   54 1
  45   23   55 1
  46   24   25 1
  47   24   56 1
  48   24   57 1
  49   25   26 1
  50   25   58 1
  51   26   27 ar
  52   26   31 ar
  53   27   28 ar
  54   27   59 1
  55   28   29 ar
  56   28   37 1
  57   29   30 ar
  58   29   32 1
  59   30   31 ar
  60   30   36 1
  61   31   60 1
  62   32   33 1
  63   32   34 1
  64   32   35 1

#	End of record

