#	Name: ASD01940078
#	Creating user name:	WinNT
#	Creation time:	15. 06. 2019 20:11

#	Modifying user name:	WinNT
#	Modification time:	15. 06. 2019 20:11

#	Program:	/corina/corina34_cracker 3.40 0067  02.08.2006

@<TRIPOS>MOLECULE
ASD01940078
  32   33    0    0    0
SMALL
NO_CHARGES


@<TRIPOS>ATOM
   1 I1             2.7364    -4.3074    -2.4251 I       
   2 F2             1.8545     1.4496     2.1342 F       
   3 C3             1.0172     2.0876     1.2874 C.ar    
   4 C4             1.3438     2.2031    -0.0572 C.ar    
   5 C5             0.4764     2.8618    -0.9271 C.ar    
   6 C6            -0.7083     3.3988    -0.4460 C.ar    
   7 C7            -1.0282     3.2812     0.8941 C.ar    
   8 C8            -0.1711     2.6224     1.7590 C.ar    
   9 N9             2.5426     1.6590    -0.5385 N.pl3   
  10 N10            0.8011     2.9817    -2.2850 N.am    
  11 C11            2.5863     0.3271    -0.9593 C.ar    
  12 C12            1.4317    -0.4445    -0.9481 C.ar    
  13 C13            1.4779    -1.7607    -1.3651 C.ar    
  14 C14            2.6723    -2.3108    -1.7937 C.ar    
  15 C15            3.8251    -1.5456    -1.8060 C.ar    
  16 C16            3.7848    -0.2269    -1.3957 C.ar    
  17 Cl17           5.2312     0.7328    -1.4113 Cl      
  18 F18           -0.4911     2.5055     3.0663 F       
  19 S19            0.3867     4.3519    -3.1176 S.o2    
  20 O20            0.9477     4.1603    -4.4090 O.2     
  21 O21           -1.0188     4.4595    -2.9379 O.2     
  22 C22            1.2445     5.6898    -2.2430 C.3     
  23 F23            2.6237     5.4574    -2.2731 F       
  24 F24            0.9634     6.9100    -2.8669 F       
  25 F25            0.8078     5.7337    -0.9147 F       
  26 H26           -1.3816     3.9095    -1.1186 H       
  27 H27           -1.9512     3.7005     1.2662 H       
  28 H28            3.3420     2.2070    -0.5794 H       
  29 H29            1.2686     2.2621    -2.7372 H       
  30 H30            0.4986    -0.0161    -0.6132 H       
  31 H31            0.5802    -2.3610    -1.3561 H       
  32 H32            4.7563    -1.9783    -2.1406 H       
@<TRIPOS>BOND
   1    1   14 1
   2    2    3 1
   3    3    4 ar
   4    3    8 ar
   5    4    5 ar
   6    4    9 1
   7    5    6 ar
   8    5   10 1
   9    6    7 ar
  10    6   26 1
  11    7    8 ar
  12    7   27 1
  13    8   18 1
  14    9   11 1
  15    9   28 1
  16   10   19 am
  17   10   29 1
  18   11   12 ar
  19   11   16 ar
  20   12   13 ar
  21   12   30 1
  22   13   14 ar
  23   13   31 1
  24   14   15 ar
  25   15   16 ar
  26   15   32 1
  27   16   17 1
  28   19   20 2
  29   19   21 2
  30   19   22 1
  31   22   23 1
  32   22   24 1
  33   22   25 1

#	End of record

