#	Name: ASD01816770
#	Creating user name:	WinNT
#	Creation time:	15. 06. 2019 19:35

#	Modifying user name:	WinNT
#	Modification time:	15. 06. 2019 19:35

#	Program:	/corina/corina34_cracker 3.40 0067  02.08.2006

@<TRIPOS>MOLECULE
ASD01816770
  55   58    0    0    0
SMALL
NO_CHARGES


@<TRIPOS>ATOM
   1 C1            -0.0166     1.3881     0.0184 C.ar    
   2 C2             0.0025    -0.0052    -0.0003 C.ar    
   3 C3             1.1805    -0.6883    -0.0233 C.ar    
   4 C4             2.3930     0.0184    -0.0287 C.ar    
   5 C5             2.3768     1.4368    -0.0101 C.ar    
   6 C6             1.1392     2.1061     0.0138 C.ar    
   7 C7             3.6308    -0.6538    -0.0518 C.ar    
   8 C8             4.7718     0.0926    -0.0554 C.ar    
   9 C9             4.6899     1.4945    -0.0363 C.ar    
  10 N10            3.5254     2.1169    -0.0156 N.ar    
  11 C11            3.6922    -2.1594    -0.0715 C.3     
  12 C12            5.9364     2.2920    -0.0400 C.2     
  13 O13            5.8825     3.5034    -0.1228 O.2     
  14 N14            7.1314     1.6751     0.0484 N.am    
  15 C15            8.3676     2.4526    -0.0683 C.3     
  16 C16            8.7332     3.0373     1.2975 C.3     
  17 C17            9.4984     1.5431    -0.5530 C.3     
  18 C18           10.7894     2.3551    -0.6748 C.3     
  19 C19           11.1550     2.9397     0.6910 C.3     
  20 C20           10.0242     3.8493     1.1757 C.3     
  21 C21            3.5722    -2.6485    -1.4919 C.ar    
  22 C22            4.7014    -2.8252    -2.2668 C.ar    
  23 C23            2.3261    -2.9317    -2.0333 C.ar    
  24 C24            2.2609    -3.3786    -3.3417 C.ar    
  25 C25            3.4375    -3.5276    -4.0643 C.ar    
  26 N26            4.6073    -3.2525    -3.5115 N.ar    
  27 O27            3.3870    -3.9653    -5.3475 O.3     
  28 C28            4.6315    -4.0977    -6.0372 C.3     
  29 O29            9.1569     0.9971    -1.8286 O.3     
  30 O30            3.4946     3.5324     0.0036 O.3     
  31 H31           -0.9640     1.9063     0.0323 H       
  32 H32           -0.9296    -0.5507     0.0038 H       
  33 H33            1.1816    -1.7682    -0.0370 H       
  34 H34            1.1069     3.1855     0.0279 H       
  35 H35            5.7363    -0.3931    -0.0725 H       
  36 H36            4.6427    -2.4898     0.3475 H       
  37 H37            2.8729    -2.5643     0.5226 H       
  38 H38            7.1730     0.7163     0.1892 H       
  39 H39            8.2213     3.2627    -0.7828 H       
  40 H40            7.9276     3.6852     1.6428 H       
  41 H41            8.8795     2.2272     2.0121 H       
  42 H42            9.6447     0.7331     0.1616 H       
  43 H43           11.5950     1.7071    -1.0201 H       
  44 H44           10.6430     3.1651    -1.3893 H       
  45 H45           11.3013     2.1297     1.4056 H       
  46 H46           12.0747     3.5182     0.6042 H       
  47 H47            9.8778     4.6593     0.4612 H       
  48 H48           10.2846     4.2658     2.1487 H       
  49 H49            5.6739    -2.6105    -1.8489 H       
  50 H50            1.4278    -2.8066    -1.4469 H       
  51 H51            1.3077    -3.6086    -3.7945 H       
  52 H52            5.1295    -3.1289    -6.0775 H       
  53 H53            5.2654    -4.8103    -5.5094 H       
  54 H54            4.4491    -4.4549    -7.0507 H       
  55 H55            9.8301     0.4091    -2.1977 H       
@<TRIPOS>BOND
   1    1    2 ar
   2    1    6 ar
   3    1   31 1
   4    2    3 ar
   5    2   32 1
   6    3    4 ar
   7    3   33 1
   8    4    5 ar
   9    4    7 ar
  10    5    6 ar
  11    5   10 ar
  12    6   34 1
  13    7    8 ar
  14    7   11 1
  15    8    9 ar
  16    8   35 1
  17    9   10 ar
  18    9   12 1
  19   10   30 1
  20   11   21 1
  21   11   36 1
  22   11   37 1
  23   12   13 2
  24   12   14 am
  25   14   15 1
  26   14   38 1
  27   15   16 1
  28   15   17 1
  29   15   39 1
  30   16   20 1
  31   16   40 1
  32   16   41 1
  33   17   18 1
  34   17   29 1
  35   17   42 1
  36   18   19 1
  37   18   43 1
  38   18   44 1
  39   19   20 1
  40   19   45 1
  41   19   46 1
  42   20   47 1
  43   20   48 1
  44   21   22 ar
  45   21   23 ar
  46   22   26 ar
  47   22   49 1
  48   23   24 ar
  49   23   50 1
  50   24   25 ar
  51   24   51 1
  52   25   26 ar
  53   25   27 1
  54   27   28 1
  55   28   52 1
  56   28   53 1
  57   28   54 1
  58   29   55 1

#	End of record

