#	Name: ASD01871031
#	Creating user name:	WinNT
#	Creation time:	15. 06. 2019 19:39

#	Modifying user name:	WinNT
#	Modification time:	15. 06. 2019 19:39

#	Program:	/corina/corina34_cracker 3.40 0067  02.08.2006

@<TRIPOS>MOLECULE
ASD01871031
  25   27    0    0    0
SMALL
NO_CHARGES


@<TRIPOS>ATOM
   1 C1            -0.0162     1.3405     0.0094 C.2     
   2 C2             0.0021    -0.0041     0.0020 C.2     
   3 S3            -1.6654    -0.5717     0.0155 S.3     
   4 C4            -2.2296     1.0416     0.0298 C.2     
   5 N5            -1.2338     1.8676     0.0296 N.2     
   6 O6            -3.5354     1.4043     0.0447 O.3     
   7 C7            -4.4701     0.4201     0.0492 C.ar    
   8 C8            -5.8182     0.7529     0.0644 C.ar    
   9 N9            -4.0875    -0.8459     0.0336 N.ar    
  10 C10           -4.9619    -1.8339     0.0369 C.ar    
  11 C11           -6.3208    -1.5769     0.0569 C.ar    
  12 C12           -6.7623    -0.2594     0.0684 C.ar    
  13 C13            1.2200     2.1645     0.0020 C.2     
  14 C14            2.5387     1.6847    -0.1126 C.2     
  15 N15            3.3488     2.7099    -0.0801 N.2     
  16 N16            2.5853     3.8757     0.0555 N.pl3   
  17 C17            1.2829     3.5233     0.0992 C.2     
  18 F18           -7.2087    -2.5951     0.0596 F       
  19 H19            0.8844    -0.6268    -0.0104 H       
  20 H20           -6.1260     1.7880     0.0734 H       
  21 H21           -4.6123    -2.8556     0.0234 H       
  22 H22           -7.8177    -0.0305     0.0841 H       
  23 H23            2.8303     0.6493    -0.2099 H       
  24 H24            2.9319     4.7802     0.1063 H       
  25 H25            0.4433     4.1952     0.1988 H       
@<TRIPOS>BOND
   1    1    2 2
   2    1   13 1
   3    1    5 1
   4    2    3 1
   5    2   19 1
   6    3    4 1
   7    4    5 2
   8    4    6 1
   9    6    7 1
  10    7    8 ar
  11    7    9 ar
  12    8   12 ar
  13    8   20 1
  14    9   10 ar
  15   10   11 ar
  16   10   21 1
  17   11   12 ar
  18   11   18 1
  19   12   22 1
  20   13   14 1
  21   13   17 2
  22   14   15 2
  23   14   23 1
  24   15   16 1
  25   16   17 1
  26   16   24 1
  27   17   25 1

#	End of record

