#	Name: ASD05730027
#	Creating user name:	WinNT
#	Creation time:	15. 06. 2019 21:02

#	Modifying user name:	WinNT
#	Modification time:	15. 06. 2019 21:02

#	Program:	/corina/corina34_cracker 3.40 0067  02.08.2006

@<TRIPOS>MOLECULE
ASD05730027
  66   69    0    0    0
SMALL
NO_CHARGES


@<TRIPOS>ATOM
   1 C1            -0.0817     1.3091     0.5858 C.ar    
   2 C2            -0.0337    -0.0494     0.2553 C.ar    
   3 C3            -1.1677    -0.7067    -0.1627 C.ar    
   4 C4            -2.3790    -0.0256    -0.2623 C.ar    
   5 C5            -2.4299     1.3382     0.0688 C.ar    
   6 C6            -1.2898     2.0018     0.4964 C.ar    
   7 N7            -3.6409    -0.4467    -0.6493 N.am    
   8 C8            -4.5328     0.5567    -0.5961 C.2     
   9 C9            -3.8329     1.7640    -0.1370 C.2     
  10 C10           -4.3673     3.0215     0.0601 C.2     
  11 C11           -5.7625     3.2182    -0.0319 C.2     
  12 N12           -6.7351     2.3120     0.3369 N.pl3   
  13 C13           -7.9468     2.8448     0.1067 C.2     
  14 C14           -7.7812     4.1135    -0.4186 C.2     
  15 C15           -6.3929     4.3536    -0.5013 C.2     
  16 C16           -5.7265     5.6046    -1.0131 C.3     
  17 C17           -8.8547     5.0439    -0.8127 C.2     
  18 O18           -9.3044     5.8316    -0.0028 O.2     
  19 N19           -9.3377     5.0214    -2.0708 N.am    
  20 O20           -5.7149     0.4790    -0.8795 O.2     
  21 C21            1.1403     2.0060     1.0333 C.2     
  22 N22            2.3047     1.3335     1.1242 N.am    
  23 C23            3.5174     2.0252     1.5683 C.3     
  24 C24            4.7294     1.3123     1.0262 C.ar    
  25 C25            5.8719    -0.7232     0.4930 C.ar    
  26 C26            4.7601    -0.0693     0.9903 C.ar    
  27 C27          -10.4044     5.9460    -2.4625 C.3     
  28 C28          -10.7663     5.7145    -3.9309 C.3     
  29 C29            3.5704     2.0306     3.0974 C.3     
  30 C30            5.8081     2.0400     0.5596 C.ar    
  31 C31            6.9199     1.3861     0.0623 C.ar    
  32 C32            6.9531     0.0044     0.0321 C.ar    
  33 O33          -11.3237     4.4076    -4.0839 O.3     
  34 C34          -11.6978     4.0886    -5.4256 C.3     
  35 O35            1.0962     3.1868     1.3200 O.2     
  36 C36           -9.2678     2.1713     0.3759 C.3     
  37 H37            0.9006    -0.5862     0.3286 H       
  38 H38           -1.1186    -1.7556    -0.4151 H       
  39 H39           -1.3347     3.0506     0.7501 H       
  40 H40           -3.8537    -1.3522    -0.9244 H       
  41 H41           -3.7181     3.8549     0.2847 H       
  42 H42           -6.5702     1.4296     0.7044 H       
  43 H43           -5.5774     6.3006    -0.1876 H       
  44 H44           -4.7618     5.3490    -1.4515 H       
  45 H45           -6.3581     6.0690    -1.7704 H       
  46 H46           -8.9790     4.3931    -2.7169 H       
  47 H47            2.3398     0.3915     0.8954 H       
  48 H48            3.5052     3.0515     1.2015 H       
  49 H49            5.8960    -1.8026     0.4653 H       
  50 H50            3.9157    -0.6377     1.3511 H       
  51 H51          -11.2824     5.7724    -1.8402 H       
  52 H52          -10.0624     6.9724    -2.3300 H       
  53 H53          -11.4959     6.4600    -4.2472 H       
  54 H54           -9.8693     5.8010    -4.5442 H       
  55 H55            4.4726     2.5452     3.4278 H       
  56 H56            2.6937     2.5462     3.4895 H       
  57 H57            3.5825     1.0042     3.4641 H       
  58 H58            5.7821     3.1194     0.5832 H       
  59 H59            7.7623     1.9546    -0.3029 H       
  60 H60            7.8216    -0.5064    -0.3567 H       
  61 H61          -12.4468     4.8004    -5.7729 H       
  62 H62          -10.8202     4.1414    -6.0699 H       
  63 H63          -12.1119     3.0809    -5.4576 H       
  64 H64           -9.5938     2.4029     1.3899 H       
  65 H65          -10.0108     2.5313    -0.3357 H       
  66 H66           -9.1543     1.0926     0.2682 H       
@<TRIPOS>BOND
   1    1    2 ar
   2    1   21 1
   3    1    6 ar
   4    2    3 ar
   5    2   37 1
   6    3    4 ar
   7    3   38 1
   8    4    5 ar
   9    4    7 1
  10    5    6 ar
  11    5    9 1
  12    6   39 1
  13    7    8 am
  14    7   40 1
  15    8    9 1
  16    8   20 2
  17    9   10 2
  18   10   11 1
  19   10   41 1
  20   11   12 1
  21   11   15 2
  22   12   13 1
  23   12   42 1
  24   13   14 2
  25   13   36 1
  26   14   15 1
  27   14   17 1
  28   15   16 1
  29   16   43 1
  30   16   44 1
  31   16   45 1
  32   17   18 2
  33   17   19 am
  34   19   27 1
  35   19   46 1
  36   21   22 am
  37   21   35 2
  38   22   23 1
  39   22   47 1
  40   23   24 1
  41   23   29 1
  42   23   48 1
  43   24   30 ar
  44   24   26 ar
  45   25   26 ar
  46   25   32 ar
  47   25   49 1
  48   26   50 1
  49   27   28 1
  50   27   51 1
  51   27   52 1
  52   28   33 1
  53   28   53 1
  54   28   54 1
  55   29   55 1
  56   29   56 1
  57   29   57 1
  58   30   31 ar
  59   30   58 1
  60   31   32 ar
  61   31   59 1
  62   32   60 1
  63   33   34 1
  64   34   61 1
  65   34   62 1
  66   34   63 1
  67   36   64 1
  68   36   65 1
  69   36   66 1

#	End of record

