#	Name: ASD01915655
#	Creating user name:	WinNT
#	Creation time:	15. 06. 2019 20:05

#	Modifying user name:	WinNT
#	Modification time:	15. 06. 2019 20:05

#	Program:	/corina/corina34_cracker 3.40 0067  02.08.2006

@<TRIPOS>MOLECULE
ASD01915655
  49   52    0    0    0
SMALL
NO_CHARGES


@<TRIPOS>ATOM
   1 C1            -0.0166     1.3729     0.0096 C.2     
   2 N2             0.0021    -0.0041     0.0020 N.pl3   
   3 C3            -1.2433    -0.7807    -0.0179 C.3     
   4 C4            -2.3411     0.0068     0.6954 C.3     
   5 N5            -2.4042     1.3989     0.2636 N.am    
   6 C6            -1.2810     2.1228     0.0392 C.2     
   7 C7             1.2847     1.7904    -0.0006 C.2     
   8 C8             2.0437     0.6125    -0.0024 C.2     
   9 N9             1.2133    -0.4042     0.0045 N.2     
  10 C10            3.5483     0.5278    -0.0111 C.3     
  11 O11            4.0996     1.8461    -0.0175 O.3     
  12 C12            5.4547     1.9482    -0.0258 C.ar    
  13 O13           -1.3168     3.3269    -0.1285 O.2     
  14 C14            6.0574     3.1977    -0.0322 C.ar    
  15 C15            6.2378     0.8030    -0.0220 C.ar    
  16 C16            7.6151     0.9094    -0.0305 C.ar    
  17 C17            8.2133     2.1559    -0.0427 C.ar    
  18 C18            7.4351     3.2988    -0.0407 C.ar    
  19 C19           -3.6437     1.9955     0.0779 C.ar    
  20 N20           -3.6997     3.2589    -0.3139 N.ar    
  21 N21           -4.7407     1.2852     0.2919 N.ar    
  22 C22           -5.9405     1.8201     0.1247 C.ar    
  23 C23           -6.0423     3.1384    -0.2788 C.ar    
  24 C24           -4.8693     3.8583    -0.5009 C.ar    
  25 C25           -2.0780    -0.0320     2.2021 C.3     
  26 C26           -7.3905     3.7811    -0.4795 C.3     
  27 O27           -4.9223     5.1532    -0.8969 O.3     
  28 C28           -3.6754     5.8202    -1.1030 C.3     
  29 H29           -1.5404    -0.9656    -1.0502 H       
  30 H30           -1.0875    -1.7313     0.4923 H       
  31 H31           -3.3017    -0.4679     0.4954 H       
  32 H32            1.6488     2.8072    -0.0066 H       
  33 H33            3.8875    -0.0036     0.8781 H       
  34 H34            3.8769    -0.0077    -0.9018 H       
  35 H35            5.4500     4.0907    -0.0310 H       
  36 H36            5.7710    -0.1709    -0.0121 H       
  37 H37            8.2251     0.0182    -0.0273 H       
  38 H38            9.2902     2.2370    -0.0494 H       
  39 H39            7.9047     4.2713    -0.0506 H       
  40 H40           -6.8296     1.2329     0.3012 H       
  41 H41           -1.1066     0.4154     2.4129 H       
  42 H42           -2.8561     0.5275     2.7214 H       
  43 H43           -2.0837    -1.0665     2.5454 H       
  44 H44           -7.7186     4.2366     0.4549 H       
  45 H45           -7.3166     4.5475    -1.2510 H       
  46 H46           -8.1117     3.0240    -0.7874 H       
  47 H47           -3.8604     6.8475    -1.4169 H       
  48 H48           -3.1060     5.8212    -0.1735 H       
  49 H49           -3.1088     5.3006    -1.8756 H       
@<TRIPOS>BOND
   1    1    2 1
   2    1    7 2
   3    1    6 1
   4    2    3 1
   5    2    9 1
   6    3    4 1
   7    3   29 1
   8    3   30 1
   9    4    5 1
  10    4   25 1
  11    4   31 1
  12    5    6 am
  13    5   19 1
  14    6   13 2
  15    7    8 1
  16    7   32 1
  17    8    9 2
  18    8   10 1
  19   10   11 1
  20   10   33 1
  21   10   34 1
  22   11   12 1
  23   12   14 ar
  24   12   15 ar
  25   14   18 ar
  26   14   35 1
  27   15   16 ar
  28   15   36 1
  29   16   17 ar
  30   16   37 1
  31   17   18 ar
  32   17   38 1
  33   18   39 1
  34   19   20 ar
  35   19   21 ar
  36   20   24 ar
  37   21   22 ar
  38   22   23 ar
  39   22   40 1
  40   23   24 ar
  41   23   26 1
  42   24   27 1
  43   25   41 1
  44   25   42 1
  45   25   43 1
  46   26   44 1
  47   26   45 1
  48   26   46 1
  49   27   28 1
  50   28   47 1
  51   28   48 1
  52   28   49 1

#	End of record

