#	Name: ASD03430261
#	Creating user name:	WinNT
#	Creation time:	15. 06. 2019 20:40

#	Modifying user name:	WinNT
#	Modification time:	15. 06. 2019 20:40

#	Program:	/corina/corina34_cracker 3.40 0067  02.08.2006

@<TRIPOS>MOLECULE
ASD03430261
  41   45    0    0    0
SMALL
NO_CHARGES


@<TRIPOS>ATOM
   1 C1            -0.1100     1.4270     0.1513 C.ar    
   2 C2            -0.0828     0.0414     0.1113 C.ar    
   3 C3             1.1211    -0.6276     0.0466 C.ar    
   4 C4             2.3222     0.0752     0.0306 C.ar    
   5 C5             2.2910     1.4656     0.0660 C.ar    
   6 C6             1.0831     2.1398     0.1275 C.ar    
   7 O7             3.3901    -0.7723    -0.0066 O.3     
   8 C8             1.4776    -2.0880    -0.0299 C.3     
   9 C9             2.9525    -2.0693    -0.4549 C.3     
  10 C10            0.3956    -3.8334     1.0182 C.ar    
  11 C11            1.2805    -2.7934     1.2787 C.ar    
  12 C12            0.6233    -2.8323    -1.0155 C.2     
  13 N13            0.0302    -3.8305    -0.3307 N.am    
  14 O14            0.4926    -2.5841    -2.1955 O.2     
  15 C15            1.7811    -2.5975     2.5612 C.ar    
  16 C16            1.3921    -3.4531     3.5956 C.ar    
  17 C17            0.5144    -4.4851     3.3349 C.ar    
  18 C18            0.0186    -4.6782     2.0607 C.ar    
  19 C19           -0.8895    -4.8001    -0.9309 C.3     
  20 O20           -1.3079     2.0719     0.2078 O.3     
  21 C21           -1.2815     3.4438     0.6166 C.3     
  22 C22           -0.1551     4.1510    -0.1492 C.3     
  23 O23            1.0801     3.5009     0.1675 O.3     
  24 C24            2.7201    -1.4889     2.8293 C.2     
  25 O25            3.8986    -1.7356     3.4333 O.3     
  26 O26            2.4295    -0.3549     2.5051 O.2     
  27 H27           -1.0077    -0.5158     0.1311 H       
  28 H28            3.2157     2.0232     0.0458 H       
  29 H29            3.0444    -2.1559    -1.5375 H       
  30 H30            3.5098    -2.8605     0.0465 H       
  31 H31            1.7770    -3.3072     4.5941 H       
  32 H32            0.2132    -5.1472     4.1332 H       
  33 H33           -0.6673    -5.4904     1.8703 H       
  34 H34           -1.9099    -4.4228    -0.8639 H       
  35 H35           -0.6260    -4.9510    -1.9778 H       
  36 H36           -0.8169    -5.7480    -0.3977 H       
  37 H37           -2.2364     3.9152     0.3842 H       
  38 H38           -1.0920     3.5046     1.6883 H       
  39 H39           -0.3407     4.0835    -1.2211 H       
  40 H40           -0.1074     5.1977     0.1510 H       
  41 H41            4.4799    -0.9784     3.5877 H       
@<TRIPOS>BOND
   1    1    2 ar
   2    1    6 ar
   3    1   20 1
   4    2    3 ar
   5    2   27 1
   6    3    4 ar
   7    3    8 1
   8    4    5 ar
   9    4    7 1
  10    5    6 ar
  11    5   28 1
  12    6   23 1
  13    7    9 1
  14    8    9 1
  15    8   11 1
  16    8   12 1
  17    9   29 1
  18    9   30 1
  19   10   11 ar
  20   10   13 1
  21   10   18 ar
  22   11   15 ar
  23   12   13 am
  24   12   14 2
  25   13   19 1
  26   15   16 ar
  27   15   24 1
  28   16   17 ar
  29   16   31 1
  30   17   18 ar
  31   17   32 1
  32   18   33 1
  33   19   34 1
  34   19   35 1
  35   19   36 1
  36   20   21 1
  37   21   22 1
  38   21   37 1
  39   21   38 1
  40   22   23 1
  41   22   39 1
  42   22   40 1
  43   24   25 1
  44   24   26 2
  45   25   41 1

#	End of record

