#	Name: ASD01812967
#	Creating user name:	WinNT
#	Creation time:	15. 06. 2019 19:29

#	Modifying user name:	WinNT
#	Modification time:	15. 06. 2019 19:29

#	Program:	/corina/corina34_cracker 3.40 0067  02.08.2006

@<TRIPOS>MOLECULE
ASD01812967
  50   54    0    0    0
SMALL
NO_CHARGES


@<TRIPOS>ATOM
   1 C1            -0.0166     1.3763     0.0096 C.ar    
   2 C2             0.0021    -0.0041     0.0020 C.ar    
   3 C3             1.2089    -0.6873    -0.0132 C.ar    
   4 C4             2.3943     0.0073    -0.0203 C.ar    
   5 C5             2.3945     1.4054    -0.0128 C.ar    
   6 C6             1.1722     2.0916     0.0021 C.ar    
   7 C7             3.8414    -0.4181    -0.0358 C.3     
   8 N8             4.6317     0.8184    -0.0364 N.am    
   9 C9             3.7920     1.8679    -0.0230 C.2     
  10 C10            6.0945     0.8961    -0.0493 C.3     
  11 C11            6.5832     0.9303    -1.4745 C.ar    
  12 O12            1.1518     3.4477     0.0091 O.3     
  13 O13            4.1376     3.0337    -0.0199 O.2     
  14 C14            6.7434     2.1427    -2.1200 C.ar    
  15 C15            7.1910     2.1773    -3.4262 C.ar    
  16 C16            7.4802     0.9933    -4.0911 C.ar    
  17 C17            7.3184    -0.2224    -3.4403 C.ar    
  18 C18            6.8758    -0.2503    -2.1322 C.ar    
  19 N19            8.1416     2.1748    -6.1900 N.2     
  20 N20            7.9343     1.0251    -5.4169 N.pl3   
  21 C21            8.2505    -0.0485    -6.1759 C.2     
  22 C22            8.6446     0.4060    -7.3880 C.2     
  23 C23            8.5670     1.8029    -7.3705 C.2     
  24 C24           -0.0561     4.0669     0.0235 C.ar    
  25 C25           -0.6624     4.3774     1.2375 C.ar    
  26 C26           -1.8887     5.0060     1.2569 C.ar    
  27 C27           -2.5249     5.3323     0.0529 C.ar    
  28 C28           -1.9113     5.0181    -1.1659 C.ar    
  29 C29           -0.6823     4.3946    -1.1758 C.ar    
  30 C30           -3.8320     6.0018     0.0685 C.2     
  31 F31           -0.0866     4.0963    -2.3511 F       
  32 F32           -0.0479     4.0616     2.3985 F       
  33 O33           -4.3815     6.2837    -0.9755 O.2     
  34 H34           -0.9603     1.9015     0.0169 H       
  35 H35           -0.9272    -0.5544     0.0083 H       
  36 H36            1.2168    -1.7672    -0.0190 H       
  37 H37            4.0683    -1.0074     0.8526 H       
  38 H38            4.0520    -0.9978    -0.9345 H       
  39 H39            6.4149     1.8013     0.4665 H       
  40 H40            6.5092     0.0239     0.4560 H       
  41 H41            6.5179     3.0634    -1.6025 H       
  42 H42            7.3156     3.1244    -3.9300 H       
  43 H43            7.5422    -1.1451    -3.9550 H       
  44 H44            6.7542    -1.1954    -1.6239 H       
  45 H45            8.1983    -1.0828    -5.8695 H       
  46 H46            8.9630    -0.2022    -8.2217 H       
  47 H47            8.8155     2.4610    -8.1900 H       
  48 H48           -2.3585     5.2461     2.1992 H       
  49 H49           -2.3986     5.2677    -2.0969 H       
  50 H50           -4.3040     6.2431     1.0095 H       
@<TRIPOS>BOND
   1    1    2 ar
   2    1    6 ar
   3    1   34 1
   4    2    3 ar
   5    2   35 1
   6    3    4 ar
   7    3   36 1
   8    4    7 1
   9    4    5 ar
  10    5    6 ar
  11    5    9 1
  12    6   12 1
  13    7    8 1
  14    7   37 1
  15    7   38 1
  16    8    9 am
  17    8   10 1
  18    9   13 2
  19   10   11 1
  20   10   39 1
  21   10   40 1
  22   11   14 ar
  23   11   18 ar
  24   12   24 1
  25   14   15 ar
  26   14   41 1
  27   15   16 ar
  28   15   42 1
  29   16   17 ar
  30   16   20 1
  31   17   18 ar
  32   17   43 1
  33   18   44 1
  34   19   20 1
  35   19   23 2
  36   20   21 1
  37   21   22 2
  38   21   45 1
  39   22   23 1
  40   22   46 1
  41   23   47 1
  42   24   25 ar
  43   24   29 ar
  44   25   26 ar
  45   25   32 1
  46   26   27 ar
  47   26   48 1
  48   27   28 ar
  49   27   30 1
  50   28   29 ar
  51   28   49 1
  52   29   31 1
  53   30   33 2
  54   30   50 1

#	End of record

