#	Name: ASD01150837
#	Creating user name:	WinNT
#	Creation time:	15. 06. 2019 19:05

#	Modifying user name:	WinNT
#	Modification time:	15. 06. 2019 19:05

#	Program:	/corina/corina34_cracker 3.40 0067  02.08.2006

@<TRIPOS>MOLECULE
ASD01150837
  52   54    0    0    0
SMALL
NO_CHARGES


@<TRIPOS>ATOM
   1 C1            -0.0157     1.3101     0.0092 C.2     
   2 N2             0.0021    -0.0041     0.0020 N.2     
   3 C3             1.2638    -0.4447    -0.0124 C.2     
   4 C4             2.0990     0.6652    -0.0144 C.2     
   5 N5             1.2581     1.7786    -0.0004 N.pl3   
   6 C6             3.5094     0.6665    -0.0279 C.2     
   7 O7             4.1191    -0.3875    -0.0398 O.2     
   8 O8             4.1835     1.8364    -0.0275 O.3     
   9 N9             1.6676    -1.7745    -0.0230 N.am    
  10 C10            0.7467    -2.7585    -0.0195 C.2     
  11 C11            1.1749    -4.1686    -0.0308 C.ar    
  12 C12            1.3681    -4.8355    -1.2465 C.ar    
  13 C13            1.7693    -6.1568    -1.2489 C.ar    
  14 C14            1.9803    -6.8229    -0.0519 C.ar    
  15 C15            1.7907    -6.1695     1.1557 C.ar    
  16 C16            1.3960    -4.8463     1.1742 C.ar    
  17 O17           -0.4376    -2.4828    -0.0071 O.2     
  18 F18            1.2175    -4.2092     2.3521 F       
  19 F19            2.3724    -8.1157    -0.0622 F       
  20 F20            1.1620    -4.1881    -2.4142 F       
  21 O21           -1.1295     2.0760     0.0189 O.3     
  22 C22           -2.3855     1.3945     0.0219 C.3     
  23 C23            1.6533     3.1236     0.0030 C.ar    
  24 C24            1.3728     3.9277     1.0996 C.ar    
  25 C25            1.7634     5.2524     1.1013 C.ar    
  26 C26            2.4340     5.7788     0.0101 C.ar    
  27 C27            2.7143     4.9786    -1.0848 C.ar    
  28 C28            2.3308     3.6518    -1.0876 C.ar    
  29 F29            2.8149     7.0750     0.0134 F       
  30 C30            5.6106     1.7630    -0.0416 C.3     
  31 C31            6.0708     1.0237    -1.2996 C.3     
  32 C32            6.1941     3.1773    -0.0389 C.3     
  33 C33            6.0947     1.0092     1.1987 C.3     
  34 H34            2.6123    -1.9944    -0.0329 H       
  35 H35            1.9188    -6.6726    -2.1860 H       
  36 H36            1.9563    -6.6952     2.0844 H       
  37 H37           -3.1950     2.1245     0.0297 H       
  38 H38           -2.4644     0.7741    -0.8709 H       
  39 H39           -2.4553     0.7651     0.9090 H       
  40 H40            0.8492     3.5176     1.9505 H       
  41 H41            1.5454     5.8781     1.9541 H       
  42 H42            3.2368     5.3911    -1.9352 H       
  43 H43            2.5535     3.0268    -1.9398 H       
  44 H44            5.7260     1.5607    -2.1832 H       
  45 H45            7.1593     0.9677    -1.3103 H       
  46 H46            5.6551     0.0161    -1.3014 H       
  47 H47            5.8663     3.7040     0.8573 H       
  48 H48            7.2826     3.1213    -0.0497 H       
  49 H49            5.8493     3.7143    -0.9226 H       
  50 H50            5.6790     0.0016     1.1969 H       
  51 H51            7.1832     0.9532     1.1880 H       
  52 H52            5.7668     1.5359     2.0950 H       
@<TRIPOS>BOND
   1    1    2 2
   2    1    5 1
   3    1   21 1
   4    2    3 1
   5    3    4 2
   6    3    9 1
   7    4    5 1
   8    4    6 1
   9    5   23 1
  10    6    7 2
  11    6    8 1
  12    8   30 1
  13    9   10 am
  14    9   34 1
  15   10   11 1
  16   10   17 2
  17   11   12 ar
  18   11   16 ar
  19   12   13 ar
  20   12   20 1
  21   13   14 ar
  22   13   35 1
  23   14   15 ar
  24   14   19 1
  25   15   16 ar
  26   15   36 1
  27   16   18 1
  28   21   22 1
  29   22   37 1
  30   22   38 1
  31   22   39 1
  32   23   24 ar
  33   23   28 ar
  34   24   25 ar
  35   24   40 1
  36   25   26 ar
  37   25   41 1
  38   26   27 ar
  39   26   29 1
  40   27   28 ar
  41   27   42 1
  42   28   43 1
  43   30   31 1
  44   30   33 1
  45   30   32 1
  46   31   44 1
  47   31   45 1
  48   31   46 1
  49   32   47 1
  50   32   48 1
  51   32   49 1
  52   33   50 1
  53   33   51 1
  54   33   52 1

#	End of record

