#	Name: ASD03092067
#	Creating user name:	WinNT
#	Creation time:	15. 06. 2019 20:31

#	Modifying user name:	WinNT
#	Modification time:	15. 06. 2019 20:31

#	Program:	/corina/corina34_cracker 3.40 0067  02.08.2006

@<TRIPOS>MOLECULE
ASD03092067
  53   55    0    0    0
SMALL
NO_CHARGES


@<TRIPOS>ATOM
   1 N1             0.0234     1.1320    -0.6071 N.pl3   
   2 C2             0.0004    -0.2029    -0.3310 C.2     
   3 C3            -1.2963    -0.5449    -0.0719 C.2     
   4 C4            -2.0767     0.6116    -0.1943 C.2     
   5 N5            -1.2881     1.6136    -0.5078 N.2     
   6 N6            -3.4624     0.6877    -0.0077 N.pl3   
   7 C7            -4.1388     1.8803    -0.2756 C.ar    
   8 C8            -3.6108     2.7910    -1.1825 C.ar    
   9 C9            -4.2799     3.9702    -1.4473 C.ar    
  10 C10           -5.4754     4.2471    -0.8120 C.ar    
  11 C11           -5.3426     2.1547     0.3597 C.ar    
  12 C12            1.1659    -1.1137    -0.3150 C.ar    
  13 C13            1.2099     1.9234    -0.9420 C.3     
  14 C14            2.3230    -0.8136    -1.0423 C.ar    
  15 C15            3.3867    -1.6909    -0.9987 C.ar    
  16 N16            3.3225    -2.7984    -0.2846 N.ar    
  17 C17            2.2508    -3.1192     0.4155 C.ar    
  18 C18            1.1440    -2.2967     0.4327 C.ar    
  19 C19            2.2383    -4.3989     1.2111 C.3     
  20 C20            1.3310     2.0379    -2.4398 C.2     
  21 N21            2.3547     2.7265    -2.9824 N.am    
  22 C22           -6.0078     3.3411     0.0951 C.ar    
  23 O23            0.5073     1.5105    -3.1569 O.2     
  24 C24            2.4724     2.8379    -4.4384 C.3     
  25 C25            3.3496     3.3637    -2.1161 C.3     
  26 C26           -3.7048     4.9568    -2.4306 C.3     
  27 F27           -4.1835     4.6698    -3.7134 F       
  28 F28           -4.0879     6.2529    -2.0690 F       
  29 F29           -2.3089     4.8638    -2.4221 F       
  30 O30           -7.1834     3.6152     0.7193 O.3     
  31 C31           -7.6722     2.6380     1.6402 C.3     
  32 H32           -1.6558    -1.5312     0.1818 H       
  33 H33           -3.9526    -0.0876     0.3077 H       
  34 H34           -2.6766     2.5770    -1.6804 H       
  35 H35           -5.9961     5.1699    -1.0211 H       
  36 H36           -5.7576     1.4466     1.0617 H       
  37 H37            1.1171     2.9189    -0.5078 H       
  38 H38            2.0979     1.4339    -0.5420 H       
  39 H39            2.3824     0.0910    -1.6293 H       
  40 H40            4.2840    -1.4682    -1.5569 H       
  41 H41            0.2703    -2.5655     1.0079 H       
  42 H42            2.6158    -4.2062     2.2153 H       
  43 H43            1.2183    -4.7783     1.2730 H       
  44 H44            2.8716    -5.1380     0.7204 H       
  45 H45            1.9354     3.7229    -4.7797 H       
  46 H46            3.5240     2.9228    -4.7124 H       
  47 H47            2.0455     1.9508    -4.9063 H       
  48 H48            3.0981     3.1735    -1.0728 H       
  49 H49            4.3359     2.9533    -2.3327 H       
  50 H50            3.3552     4.4383    -2.2985 H       
  51 H51           -7.8308     1.6943     1.1184 H       
  52 H52           -6.9436     2.4940     2.4380 H       
  53 H53           -8.6151     2.9803     2.0667 H       
@<TRIPOS>BOND
   1    1    2 1
   2    1   13 1
   3    1    5 1
   4    2    3 2
   5    2   12 1
   6    3    4 1
   7    3   32 1
   8    4    5 2
   9    4    6 1
  10    6    7 1
  11    6   33 1
  12    7    8 ar
  13    7   11 ar
  14    8    9 ar
  15    8   34 1
  16    9   10 ar
  17    9   26 1
  18   10   22 ar
  19   10   35 1
  20   11   22 ar
  21   11   36 1
  22   12   14 ar
  23   12   18 ar
  24   13   20 1
  25   13   37 1
  26   13   38 1
  27   14   15 ar
  28   14   39 1
  29   15   16 ar
  30   15   40 1
  31   16   17 ar
  32   17   18 ar
  33   17   19 1
  34   18   41 1
  35   19   42 1
  36   19   43 1
  37   19   44 1
  38   20   21 am
  39   20   23 2
  40   21   24 1
  41   21   25 1
  42   22   30 1
  43   24   45 1
  44   24   46 1
  45   24   47 1
  46   25   48 1
  47   25   49 1
  48   25   50 1
  49   26   27 1
  50   26   28 1
  51   26   29 1
  52   30   31 1
  53   31   51 1
  54   31   52 1
  55   31   53 1

#	End of record

