#	Name: ASD04560007
#	Creating user name:	WinNT
#	Creation time:	15. 06. 2019 20:49

#	Modifying user name:	WinNT
#	Modification time:	15. 06. 2019 20:49

#	Program:	/corina/corina34_cracker 3.40 0067  02.08.2006

@<TRIPOS>MOLECULE
ASD04560007
  48   50    0    0    0
SMALL
NO_CHARGES


@<TRIPOS>ATOM
   1 C1            -0.1556     1.5559     0.2956 C.ar    
   2 C2            -0.1731     0.1855     0.3242 C.ar    
   3 C3             1.0144    -0.5305     0.1911 C.ar    
   4 C4             2.2228     0.1433     0.0290 C.ar    
   5 C5             2.2465     1.5137    -0.0004 C.ar    
   6 C6             1.0559     2.2352     0.1325 C.ar    
   7 C7             1.0779     3.7092     0.1008 C.2     
   8 O8             2.1321     4.2987    -0.0410 O.2     
   9 N9            -0.0703     4.4032     0.2290 N.am    
  10 C10           -0.0380     5.7998     0.3147 C.ar    
  11 C11           -1.0578     6.5548    -0.2496 C.ar    
  12 C12            1.0409     7.8104     1.0526 C.ar    
  13 C13            1.0109     6.4322     0.9692 C.ar    
  14 F14            0.0571     9.9098     0.5669 F       
  15 S15            0.9881    -2.2919     0.2284 S.3     
  16 C16            2.7359    -2.7307     0.0207 C.3     
  17 C17            2.8820    -4.2305     0.0316 C.ar    
  18 C18            2.7049    -4.9581    -1.1460 C.ar    
  19 C19            2.8410    -6.3473    -1.1320 C.ar    
  20 C20            3.1494    -6.9957     0.0427 C.ar    
  21 C21            3.3249    -6.2681     1.2146 C.ar    
  22 C22            3.1960    -4.8840     1.2025 C.ar    
  23 B23            2.3527    -4.2158    -2.4838 Du      
  24 O24            2.6733    -4.8117    -3.7321 O.3     
  25 O25            1.7136    -2.9483    -2.4454 O.3     
  26 C26           -1.0239     7.9329    -0.1639 C.ar    
  27 C27            0.0259     8.5617     0.4842 C.ar    
  28 O28            3.6283    -6.9098     2.3709 O.3     
  29 C29            3.7520    -8.3321     2.3104 C.3     
  30 H30           -1.0772     2.1104     0.3943 H       
  31 H31           -1.1083    -0.3396     0.4504 H       
  32 H32            3.1420    -0.4144    -0.0732 H       
  33 H33            3.1836     2.0356    -0.1257 H       
  34 H34           -0.9191     3.9348     0.2619 H       
  35 H35           -1.8765     6.0648    -0.7554 H       
  36 H36            1.8565     8.3026     1.5614 H       
  37 H37            1.8025     5.8466     1.4129 H       
  38 H38            3.0989    -2.3372    -0.9288 H       
  39 H39            3.3174    -2.3030     0.8374 H       
  40 H40            2.7041    -6.9130    -2.0418 H       
  41 H41            3.2548    -8.0704     0.0541 H       
  42 H42            3.3328    -4.3214     2.1142 H       
  43 H43            2.4182    -4.2804    -4.4987 H       
  44 H44            1.5373    -2.5701    -3.3178 H       
  45 H45           -1.8166     8.5205    -0.6030 H       
  46 H46            2.8098    -8.7647     1.9739 H       
  47 H47            4.5445    -8.5985     1.6110 H       
  48 H48            3.9961    -8.7180     3.3001 H       
@<TRIPOS>BOND
   1    1    2 ar
   2    1    6 ar
   3    1   30 1
   4    2    3 ar
   5    2   31 1
   6    3    4 ar
   7    3   15 1
   8    4    5 ar
   9    4   32 1
  10    5    6 ar
  11    5   33 1
  12    6    7 1
  13    7    8 2
  14    7    9 am
  15    9   10 1
  16    9   34 1
  17   10   11 ar
  18   10   13 ar
  19   11   26 ar
  20   11   35 1
  21   12   13 ar
  22   12   27 ar
  23   12   36 1
  24   13   37 1
  25   14   27 1
  26   15   16 1
  27   16   17 1
  28   16   38 1
  29   16   39 1
  30   17   18 ar
  31   17   22 ar
  32   18   19 ar
  33   18   23 1
  34   19   20 ar
  35   19   40 1
  36   20   21 ar
  37   20   41 1
  38   21   22 ar
  39   21   28 1
  40   22   42 1
  41   23   24 1
  42   23   25 1
  43   24   43 1
  44   25   44 1
  45   26   27 ar
  46   26   45 1
  47   28   29 1
  48   29   46 1
  49   29   47 1
  50   29   48 1

#	End of record

