#	Name: ASD01810955
#	Creating user name:	WinNT
#	Creation time:	15. 06. 2019 19:25

#	Modifying user name:	WinNT
#	Modification time:	15. 06. 2019 19:25

#	Program:	/corina/corina34_cracker 3.40 0067  02.08.2006

@<TRIPOS>MOLECULE
ASD01810955
  41   43    0    0    0
SMALL
NO_CHARGES


@<TRIPOS>ATOM
   1 C1            -0.0096     1.4719     0.0888 C.2     
   2 C2             0.0061    -0.0047     0.0403 C.ar    
   3 C3             1.2149    -0.6874    -0.1186 C.ar    
   4 C4             1.2308    -2.0669    -0.1636 C.ar    
   5 C5             0.0540    -2.7814    -0.0521 C.ar    
   6 C6            -1.1606    -2.1119     0.1070 C.ar    
   7 C7            -1.1840    -0.7203     0.1586 C.ar    
   8 O8             1.0357     2.0905     0.0954 O.2     
   9 O9            -1.1833     2.1322     0.1201 O.3     
  10 C10            0.0813    -4.2873    -0.1029 C.3     
  11 N11           -3.7817    -4.5088     0.3308 N.2     
  12 N12           -2.5439    -4.1877     0.1998 N.2     
  13 C13           -2.4200    -2.8794     0.2262 C.2     
  14 N14           -3.6769    -2.3619     0.3854 N.pl3   
  15 C15           -4.5136    -3.4333     0.4475 C.2     
  16 C16           -6.0100    -3.3874     0.6193 C.3     
  17 O17           -6.4376    -2.0269     0.7096 O.3     
  18 C18           -7.8484    -1.8707     0.8751 C.3     
  19 C19            2.5037     0.0839    -0.2416 C.3     
  20 C20            3.5192    -0.0515     0.8948 C.3     
  21 C21            3.7891    -0.7177    -0.4558 C.3     
  22 C22           -1.1228     3.5822     0.1672 C.3     
  23 H23            2.1676    -2.5899    -0.2869 H       
  24 H24           -2.1206    -0.1979     0.2861 H       
  25 H25            0.2042    -4.6826     0.9054 H       
  26 H26           -0.8544    -4.6536    -0.5253 H       
  27 H27            0.9138    -4.6148    -0.7255 H       
  28 H28           -3.9210    -1.4248     0.4425 H       
  29 H29           -6.4888    -3.8627    -0.2368 H       
  30 H30           -6.2875    -3.9167     1.5309 H       
  31 H31           -8.0920    -0.8100     0.9352 H       
  32 H32           -8.3653    -2.3145     0.0242 H       
  33 H33           -8.1640    -2.3685     1.7919 H       
  34 H34            2.4264     1.0530    -0.7347 H       
  35 H35            4.1103     0.8283     1.1490 H       
  36 H36            3.2551    -0.6985     1.7313 H       
  37 H37            3.7026    -1.8030    -0.5079 H       
  38 H38            4.5578    -0.2762    -1.0902 H       
  39 H39           -2.1344     3.9876     0.1888 H       
  40 H40           -0.5870     3.8946     1.0635 H       
  41 H41           -0.6016     3.9529    -0.7155 H       
@<TRIPOS>BOND
   1    1    2 1
   2    1    8 2
   3    1    9 1
   4    2    3 ar
   5    2    7 ar
   6    3    4 ar
   7    3   19 1
   8    4    5 ar
   9    4   23 1
  10    5    6 ar
  11    5   10 1
  12    6    7 ar
  13    6   13 1
  14    7   24 1
  15    9   22 1
  16   10   25 1
  17   10   26 1
  18   10   27 1
  19   11   12 1
  20   11   15 2
  21   12   13 2
  22   13   14 1
  23   14   15 1
  24   14   28 1
  25   15   16 1
  26   16   17 1
  27   16   29 1
  28   16   30 1
  29   17   18 1
  30   18   31 1
  31   18   32 1
  32   18   33 1
  33   19   20 1
  34   19   21 1
  35   19   34 1
  36   20   21 1
  37   20   35 1
  38   20   36 1
  39   21   37 1
  40   21   38 1
  41   22   39 1
  42   22   40 1
  43   22   41 1

#	End of record

