#	Name: ASD03240692
#	Creating user name:	WinNT
#	Creation time:	15. 06. 2019 20:35

#	Modifying user name:	WinNT
#	Modification time:	15. 06. 2019 20:35

#	Program:	/corina/corina34_cracker 3.40 0067  02.08.2006

@<TRIPOS>MOLECULE
ASD03240692
  69   76    0    0    0
SMALL
NO_CHARGES


@<TRIPOS>ATOM
   1 C1             0.1110     1.5267     0.0691 C.3     
   2 C2             1.4062     0.7158     0.2414 C.3     
   3 C3             2.1678     2.0319     0.0119 C.3     
   4 C4             0.9357     2.5171    -0.7699 C.3     
   5 N5            -0.9251     0.8244    -0.6997 N.3     
   6 O6             2.4112     2.7691     1.2117 O.3     
   7 C7            -0.4097     2.1132     1.3559 C.ar    
   8 C8            -0.9727     3.3769     1.3589 C.ar    
   9 C9            -1.4513     3.9194     2.5339 C.ar    
  10 C10           -1.3665     3.1907     3.7203 C.ar    
  11 C11           -0.7979     1.9170     3.7108 C.ar    
  12 C12           -0.3280     1.3833     2.5284 C.ar    
  13 C13           -2.5473     7.5422     7.6924 C.2     
  14 N14           -3.1312     6.7998     8.6509 N.2     
  15 C15           -3.2882     5.5072     8.5285 C.2     
  16 C16           -2.8162     4.8464     7.3134 C.ar    
  17 C17           -2.2042     5.6301     6.3117 C.ar    
  18 N18           -2.0815     6.9889     6.5296 N.pl3   
  19 C19           -2.9556     3.4677     7.1245 C.ar    
  20 C20           -2.4769     2.9210     5.9380 C.ar    
  21 C21           -1.8778     3.7672     4.9849 C.ar    
  22 N22           -1.7633     5.0695     5.1991 N.ar    
  23 N23           -1.5351     8.0151     5.7491 N.2     
  24 C24           -1.6578     9.1547     6.4017 C.2     
  25 C25           -2.2830     8.9015     7.6278 C.2     
  26 C26           -2.5955     1.4658     5.6805 C.ar    
  27 C27           -2.1738     0.5485     6.6417 C.ar    
  28 C28           -2.2866    -0.8048     6.3964 C.ar    
  29 C29           -2.8170    -1.2517     5.1995 C.ar    
  30 C30           -3.2367    -0.3461     4.2418 C.ar    
  31 C31           -3.1345     1.0097     4.4786 C.ar    
  32 C32           -1.2039    10.4828     5.9188 C.ar    
  33 C33           -0.5875    10.6005     4.6748 C.ar    
  34 C34           -0.1674    11.8370     4.2294 C.ar    
  35 C35           -0.3577    12.9606     5.0174 C.ar    
  36 C36           -0.9702    12.8480     6.2550 C.ar    
  37 C37           -1.3980    11.6161     6.7057 C.ar    
  38 F38            0.0555    14.1694     4.5778 F       
  39 C39            3.4194     1.8729    -0.8536 C.3     
  40 C40            4.2454     3.1288    -1.1386 C.3     
  41 C41            4.7769     2.0659    -0.1749 C.3     
  42 H42            1.5347     0.3059     1.2432 H       
  43 H43            1.5660    -0.0237    -0.5433 H       
  44 H44            0.9668     2.2701    -1.8311 H       
  45 H45            0.6843     3.5614    -0.5846 H       
  46 H46           -1.7556     1.3905    -0.7886 H       
  47 H47           -0.5778     0.5473    -1.6056 H       
  48 H48            1.6114     2.9809     1.7123 H       
  49 H49           -1.0374     3.9402     0.4397 H       
  50 H50           -1.8902     4.9061     2.5350 H       
  51 H51           -0.7295     1.3481     4.6263 H       
  52 H52            0.1085     0.3955     2.5189 H       
  53 H53           -3.7602     4.9361     9.3143 H       
  54 H54           -3.4194     2.8466     7.8765 H       
  55 H55           -2.5187     9.6334     8.3862 H       
  56 H56           -1.7592     0.8963     7.5763 H       
  57 H57           -1.9598    -1.5165     7.1402 H       
  58 H58           -2.9034    -2.3118     5.0119 H       
  59 H59           -3.6494    -0.7007     3.3089 H       
  60 H60           -3.4674     1.7158     3.7323 H       
  61 H61           -0.4385     9.7251     4.0601 H       
  62 H62            0.3107    11.9291     3.2654 H       
  63 H63           -1.1166    13.7264     6.8661 H       
  64 H64           -1.8791    11.5298     7.6688 H       
  65 H65            3.3530     1.1243    -1.6431 H       
  66 H66            4.7228     3.2062    -2.1155 H       
  67 H67            3.8973     4.0683    -0.7095 H       
  68 H68            4.7784     2.3062     0.8883 H       
  69 H69            5.6039     1.4442    -0.5177 H       
@<TRIPOS>BOND
   1    1    2 1
   2    1    4 1
   3    1    5 1
   4    1    7 1
   5    2    3 1
   6    2   42 1
   7    2   43 1
   8    3    4 1
   9    3    6 1
  10    3   39 1
  11    4   44 1
  12    4   45 1
  13    5   46 1
  14    5   47 1
  15    6   48 1
  16    7    8 ar
  17    7   12 ar
  18    8    9 ar
  19    8   49 1
  20    9   10 ar
  21    9   50 1
  22   10   11 ar
  23   10   21 1
  24   11   12 ar
  25   11   51 1
  26   12   52 1
  27   13   14 1
  28   13   18 1
  29   13   25 2
  30   14   15 2
  31   15   16 1
  32   15   53 1
  33   16   17 ar
  34   16   19 ar
  35   17   18 1
  36   17   22 ar
  37   18   23 1
  38   19   20 ar
  39   19   54 1
  40   20   21 ar
  41   20   26 1
  42   21   22 ar
  43   23   24 2
  44   24   25 1
  45   24   32 1
  46   25   55 1
  47   26   27 ar
  48   26   31 ar
  49   27   28 ar
  50   27   56 1
  51   28   29 ar
  52   28   57 1
  53   29   30 ar
  54   29   58 1
  55   30   31 ar
  56   30   59 1
  57   31   60 1
  58   32   33 ar
  59   32   37 ar
  60   33   34 ar
  61   33   61 1
  62   34   35 ar
  63   34   62 1
  64   35   36 ar
  65   35   38 1
  66   36   37 ar
  67   36   63 1
  68   37   64 1
  69   39   40 1
  70   39   41 1
  71   39   65 1
  72   40   41 1
  73   40   66 1
  74   40   67 1
  75   41   68 1
  76   41   69 1

#	End of record

