#	Name: ASD03900025
#	Creating user name:	WinNT
#	Creation time:	15. 06. 2019 20:47

#	Modifying user name:	WinNT
#	Modification time:	15. 06. 2019 20:47

#	Program:	/corina/corina34_cracker 3.40 0067  02.08.2006

@<TRIPOS>MOLECULE
ASD03900025
  41   43    0    0    0
SMALL
NO_CHARGES


@<TRIPOS>ATOM
   1 C1             0.0492     1.2729     0.6400 C.ar    
   2 C2            -0.9553     1.8016    -0.1740 C.ar    
   3 C3            -2.1418     1.1465    -0.3096 C.ar    
   4 C4            -2.3547    -0.0679     0.3739 C.ar    
   5 C5            -1.3365    -0.5957     1.1937 C.ar    
   6 C6            -0.1528     0.0671     1.3157 C.ar    
   7 C7            -6.0232     1.9124     1.0040 C.ar    
   8 C8            -7.1947     1.3481     0.4936 C.ar    
   9 C9            -7.1674     0.0847    -0.1015 C.ar    
  10 C10           -5.9963    -0.6054    -0.1888 C.ar    
  11 C11           -4.8103    -0.0421     0.3242 C.ar    
  12 C12           -4.8453     1.2332     0.9239 C.ar    
  13 O13            1.2260     1.9293     0.7704 O.3     
  14 O14           -8.3620     2.0288     0.5766 O.3     
  15 C15           -3.5876    -0.7553     0.2377 C.2     
  16 N16           -3.5974    -2.0997     0.0240 N.2     
  17 N17           -2.4900    -2.7278    -0.1839 N.pl3   
  18 C18           -2.4873    -4.0990    -0.2946 C.ar    
  19 C19           -1.2887    -4.7832    -0.5201 C.ar    
  20 C20           -1.2933    -6.1569    -0.6300 C.ar    
  21 C21           -2.4820    -6.8600    -0.5181 C.ar    
  22 C22           -3.6737    -6.1883    -0.2951 C.ar    
  23 C23           -3.6827    -4.8158    -0.1765 C.ar    
  24 N24           -0.0257    -6.8828    -0.8686 N.pl3   
  25 O25            1.1049    -6.2159    -0.9756 O.2     
  26 O26           -0.0284    -8.1956    -0.9739 O.2     
  27 H27           -0.7910     2.7323    -0.6968 H       
  28 H28           -2.9177     1.5566    -0.9391 H       
  29 H29           -1.4932    -1.5254     1.7204 H       
  30 H30            0.6282    -0.3363     1.9431 H       
  31 H31           -6.0506     2.8914     1.4591 H       
  32 H32           -8.0769    -0.3458    -0.4937 H       
  33 H33           -5.9768    -1.5825    -0.6485 H       
  34 H34           -3.9402     1.6708     1.3186 H       
  35 H35            1.2430     2.5654     1.4985 H       
  36 H36           -8.5393     2.5997    -0.1835 H       
  37 H37           -1.6592    -2.2333    -0.2623 H       
  38 H38           -0.3616    -4.2362    -0.6082 H       
  39 H39           -2.4799    -7.9365    -0.6054 H       
  40 H40           -4.5966    -6.7426    -0.2093 H       
  41 H41           -4.6120    -4.2936    -0.0028 H       
@<TRIPOS>BOND
   1    1    2 ar
   2    1   13 1
   3    1    6 ar
   4    2    3 ar
   5    2   27 1
   6    3    4 ar
   7    3   28 1
   8    4    5 ar
   9    4   15 1
  10    5    6 ar
  11    5   29 1
  12    6   30 1
  13    7    8 ar
  14    7   12 ar
  15    7   31 1
  16    8    9 ar
  17    8   14 1
  18    9   10 ar
  19    9   32 1
  20   10   11 ar
  21   10   33 1
  22   11   12 ar
  23   11   15 1
  24   12   34 1
  25   13   35 1
  26   14   36 1
  27   15   16 2
  28   16   17 1
  29   17   18 1
  30   17   37 1
  31   18   19 ar
  32   18   23 ar
  33   19   20 ar
  34   19   38 1
  35   20   21 ar
  36   20   24 1
  37   21   22 ar
  38   21   39 1
  39   22   23 ar
  40   22   40 1
  41   23   41 1
  42   24   25 2
  43   24   26 2

#	End of record

