#	Name: ASD03930131
#	Creating user name:	WinNT
#	Creation time:	15. 06. 2019 20:47

#	Modifying user name:	WinNT
#	Modification time:	15. 06. 2019 20:47

#	Program:	/corina/corina34_cracker 3.40 0067  02.08.2006

@<TRIPOS>MOLECULE
ASD03930131
  50   52    0    0    0
SMALL
NO_CHARGES


@<TRIPOS>ATOM
   1 C1            -0.0167     1.3779     0.0096 C.ar    
   2 C2             0.0021    -0.0041     0.0020 C.ar    
   3 C3             1.2084    -0.6771    -0.0131 C.ar    
   4 C4             2.3998     0.0283    -0.0202 C.ar    
   5 C5             2.3810     1.4107    -0.0126 C.ar    
   6 C6             1.1710     2.0835     0.0021 C.ar    
   7 C7             3.8311    -0.4638    -0.0359 C.3     
   8 C8             4.6718     0.7530    -0.4773 C.3     
   9 C9             3.7985     1.9416    -0.0226 C.3     
  10 N10            3.9186     3.0524    -0.9703 N.am    
  11 C11           -1.2922    -0.7760     0.0107 C.3     
  12 N12           -1.7253    -1.0187    -1.3676 N.pl3   
  13 N13           -1.9198    -0.0434    -2.3542 N.2     
  14 C14           -2.3054    -0.6430    -3.4513 C.2     
  15 C15           -2.3688    -2.0173    -3.1989 C.2     
  16 C16           -2.0018    -2.2218    -1.9127 C.2     
  17 S17            3.8748     4.6151    -0.4241 S.o2    
  18 O18            2.7061     4.6720     0.3821 O.2     
  19 C19            5.3631     4.7785     0.6000 C.3     
  20 C20            6.6027     4.5066    -0.2547 C.3     
  21 C21           -2.7690    -3.0826    -4.1869 C.3     
  22 O22           -2.7107    -4.3635    -3.5560 O.3     
  23 C23           -2.6264     0.0307    -4.7605 C.3     
  24 F24           -2.3399     1.3967    -4.6645 F       
  25 F25           -1.8537    -0.5373    -5.7790 F       
  26 F26           -3.9835    -0.1417    -5.0533 F       
  27 C27            5.4373     6.1967     1.1693 C.3     
  28 O28            3.9913     5.4014    -1.6020 O.2     
  29 H29           -0.9589     1.9056     0.0170 H       
  30 H30            1.2222    -1.7570    -0.0191 H       
  31 H31            1.1556     3.1633     0.0076 H       
  32 H32            4.1303    -0.7888     0.9606 H       
  33 H33            3.9428    -1.2797    -0.7500 H       
  34 H34            5.6356     0.7633     0.0319 H       
  35 H35            4.8039     0.7608    -1.5592 H       
  36 H36            4.0889     2.2636     0.9774 H       
  37 H37            4.0237     2.8725    -1.9176 H       
  38 H38           -1.1433    -1.7292     0.5180 H       
  39 H39           -2.0549    -0.2005     0.5353 H       
  40 H40           -1.9472    -3.1762    -1.4101 H       
  41 H41            5.3215     4.0601     1.4186 H       
  42 H42            6.5499     3.4963    -0.6603 H       
  43 H43            6.6443     5.2251    -1.0733 H       
  44 H44            7.4970     4.6048     0.3607 H       
  45 H45           -3.7852    -2.8940    -4.5330 H       
  46 H46           -2.0866    -3.0648    -5.0367 H       
  47 H47           -2.9562    -5.0984    -4.1345 H       
  48 H48            4.5542     6.3904     1.7782 H       
  49 H49            6.3316     6.2949     1.7847 H       
  50 H50            5.4789     6.9152     0.3507 H       
@<TRIPOS>BOND
   1    1    2 ar
   2    1    6 ar
   3    1   29 1
   4    2    3 ar
   5    2   11 1
   6    3    4 ar
   7    3   30 1
   8    4    5 ar
   9    4    7 1
  10    5    6 ar
  11    5    9 1
  12    6   31 1
  13    7    8 1
  14    7   32 1
  15    7   33 1
  16    8    9 1
  17    8   34 1
  18    8   35 1
  19    9   10 1
  20    9   36 1
  21   10   17 am
  22   10   37 1
  23   11   12 1
  24   11   38 1
  25   11   39 1
  26   12   13 1
  27   12   16 1
  28   13   14 2
  29   14   15 1
  30   14   23 1
  31   15   16 2
  32   15   21 1
  33   16   40 1
  34   17   18 2
  35   17   19 1
  36   17   28 2
  37   19   20 1
  38   19   27 1
  39   19   41 1
  40   20   42 1
  41   20   43 1
  42   20   44 1
  43   21   22 1
  44   21   45 1
  45   21   46 1
  46   22   47 1
  47   23   24 1
  48   23   25 1
  49   23   26 1
  50   27   48 1
  51   27   49 1
  52   27   50 1

#	End of record

