#	Name: ASD02408061
#	Creating user name:	WinNT
#	Creation time:	15. 06. 2019 20:21

#	Modifying user name:	WinNT
#	Modification time:	15. 06. 2019 20:21

#	Program:	/corina/corina34_cracker 3.40 0067  02.08.2006

@<TRIPOS>MOLECULE
ASD02408061
  34   36    0    0    0
SMALL
NO_CHARGES


@<TRIPOS>ATOM
   1 C1            -0.0167     1.3777     0.0096 C.ar    
   2 C2             0.0021    -0.0041     0.0020 C.ar    
   3 C3             1.2781     2.1488     0.0014 C.3     
   4 C4             1.6962     2.4134    -1.4221 C.2     
   5 N5             2.8358     3.0945    -1.6501 N.am    
   6 N6             0.9446     1.9704    -2.3931 N.2     
   7 C7             1.2664     2.1753    -3.6768 C.2     
   8 C8             2.4395     2.8832    -3.9865 C.2     
   9 C9             3.2405     3.3489    -2.9123 C.2     
  10 N10            0.4585     1.6982    -4.6796 N.pl3   
  11 C11           -0.7629     0.9605    -4.3476 C.3     
  12 O12            4.2686     3.9685    -3.1243 O.2     
  13 C13           -1.1869    -0.7119     0.0091 C.ar    
  14 C14           -2.3936    -0.0358     0.0238 C.ar    
  15 C15           -2.4111     1.3464     0.0314 C.ar    
  16 C16           -1.2232     2.0530     0.0190 C.ar    
  17 Cl17          -1.1642    -2.4477    -0.0010 Cl      
  18 C18           -1.8910     0.9603    -5.3812 C.3     
  19 C19           -1.0637    -0.3061    -5.1516 C.3     
  20 C20            2.8184     3.1231    -5.3465 C.1     
  21 N21            3.1190     3.3134    -6.4253 N.1     
  22 H22            0.9445    -0.5314    -0.0098 H       
  23 H23            1.1399     3.0965     0.5217 H       
  24 H24            2.0505     1.5672     0.5048 H       
  25 H25            3.3693     3.4046    -0.9017 H       
  26 H26            0.6966     1.8496    -5.6076 H       
  27 H27           -1.0449     0.9676    -3.2948 H       
  28 H28           -3.3219    -0.5877     0.0290 H       
  29 H29           -3.3532     1.8744     0.0429 H       
  30 H30           -1.2373     3.1328     0.0253 H       
  31 H31           -2.9152     0.9669    -5.0083 H       
  32 H32           -1.7244     1.5091    -6.3081 H       
  33 H33           -0.3528    -0.5904    -5.9274 H       
  34 H34           -1.5436    -1.1326    -4.6276 H       
@<TRIPOS>BOND
   1    1    2 ar
   2    1    3 1
   3    1   16 ar
   4    2   13 ar
   5    2   22 1
   6    3    4 1
   7    3   23 1
   8    3   24 1
   9    4    5 1
  10    4    6 2
  11    5    9 am
  12    5   25 1
  13    6    7 1
  14    7    8 2
  15    7   10 1
  16    8    9 1
  17    8   20 1
  18    9   12 2
  19   10   11 1
  20   10   26 1
  21   11   18 1
  22   11   19 1
  23   11   27 1
  24   13   14 ar
  25   13   17 1
  26   14   15 ar
  27   14   28 1
  28   15   16 ar
  29   15   29 1
  30   16   30 1
  31   18   19 1
  32   18   31 1
  33   18   32 1
  34   19   33 1
  35   19   34 1
  36   20   21 3

#	End of record

