#	Name: ASD03430639
#	Creating user name:	WinNT
#	Creation time:	15. 06. 2019 20:41

#	Modifying user name:	WinNT
#	Modification time:	15. 06. 2019 20:41

#	Program:	/corina/corina34_cracker 3.40 0067  02.08.2006

@<TRIPOS>MOLECULE
ASD03430639
  17   17    0    0    0
SMALL
NO_CHARGES


@<TRIPOS>ATOM
   1 C1            -0.0167     1.3781     0.0096 C.ar    
   2 C2             0.0021    -0.0041     0.0020 C.ar    
   3 C3             1.2216    -0.6630    -0.0131 C.ar    
   4 C4             2.3820     0.0963    -0.0201 C.ar    
   5 C5             2.2849     1.4746    -0.0118 C.ar    
   6 N6             1.1070     2.0678     0.0026 N.ar    
   7 C7            -1.3367     2.1050     0.0198 C.3     
   8 C8            -1.2869    -0.7847     0.0106 C.3     
   9 F9            -1.0876    -2.0069     0.6616 F       
  10 F10           -2.2709    -0.0528     0.6838 F       
  11 H11            1.2670    -1.7420    -0.0190 H       
  12 H12            3.3495    -0.3836    -0.0316 H       
  13 H13            3.1839     2.0731    -0.0171 H       
  14 H14           -1.6502     2.2746     1.0499 H       
  15 H15           -1.2281     3.0626    -0.4894 H       
  16 H16           -2.0867     1.5034    -0.4938 H       
  17 H17           -1.6079    -0.9674    -1.0149 H       
@<TRIPOS>BOND
   1    1    2 ar
   2    1    6 ar
   3    1    7 1
   4    2    3 ar
   5    2    8 1
   6    3    4 ar
   7    3   11 1
   8    4    5 ar
   9    4   12 1
  10    5    6 ar
  11    5   13 1
  12    7   14 1
  13    7   15 1
  14    7   16 1
  15    8    9 1
  16    8   10 1
  17    8   17 1

#	End of record

