#	Name: ASD01208978
#	Creating user name:	WinNT
#	Creation time:	15. 06. 2019 19:10

#	Modifying user name:	WinNT
#	Modification time:	15. 06. 2019 19:10

#	Program:	/corina/corina34_cracker 3.40 0067  02.08.2006

@<TRIPOS>MOLECULE
ASD01208978
  51   54    0    0    0
SMALL
NO_CHARGES


@<TRIPOS>ATOM
   1 C1            -1.7710     1.6785    -1.2744 C.3     
   2 C2            -1.9686     0.1608    -1.2134 C.3     
   3 C3            -1.4088    -0.4677    -2.4932 C.3     
   4 C4            -2.1011     0.1600    -3.7058 C.3     
   5 C5            -2.4493     2.2234    -2.5340 C.3     
   6 C6            -1.2275    -0.4035     0.0004 C.3     
   7 C7            -1.5524    -1.8911     0.1501 C.3     
   8 C8            -0.7086    -2.4813     1.2504 C.2     
   9 O9            -1.2364    -2.9195     2.2506 O.2     
  10 N10           -2.9701    -2.0502     0.4831 N.pl3   
  11 C11           -3.5070    -1.9885     1.7196 C.2     
  12 C12           -4.8405    -2.1851     1.6006 C.2     
  13 C13           -5.1284    -2.3734     0.2449 C.2     
  14 N14           -4.0088    -2.2872    -0.4265 N.2     
  15 N15            0.6325    -2.5222     1.1230 N.am    
  16 O16           -1.9044     1.5753    -3.6852 O.3     
  17 S17           -6.0079    -2.2010     2.9203 S.o2    
  18 O18           -7.0692    -3.0144     2.4395 O.2     
  19 O19           -5.2468    -2.5861     4.0568 O.2     
  20 C20           -6.5459    -0.4751     3.0696 C.3     
  21 C21           -7.4900    -0.1266     4.2220 C.3     
  22 C22           -6.0288     0.3250     4.2668 C.3     
  23 C23            1.4041    -3.1762     2.0823 C.ar    
  24 C24            0.8071    -4.0684     2.9682 C.ar    
  25 N25            1.5410    -4.6861     3.8747 N.ar    
  26 C26            2.8417    -4.4581     3.9417 C.ar    
  27 C27            3.4379    -3.5722     3.0634 C.ar    
  28 N28            2.7100    -2.9541     2.1494 N.ar    
  29 H29           -2.2161     2.1395    -0.3926 H       
  30 H30           -0.7055     1.9061    -1.3070 H       
  31 H31           -3.0316    -0.0655    -1.1308 H       
  32 H32           -0.3360    -0.2835    -2.5505 H       
  33 H33           -1.5948    -1.5417    -2.4832 H       
  34 H34           -1.6764    -0.2527    -4.6209 H       
  35 H35           -3.1682    -0.0592    -3.6690 H       
  36 H36           -3.5210     2.0312    -2.4819 H       
  37 H37           -2.2755     3.2971    -2.6050 H       
  38 H38           -0.1537    -0.2783    -0.1390 H       
  39 H39           -1.5418     0.1292     0.8979 H       
  40 H40           -1.3393    -2.4056    -0.7869 H       
  41 H41           -2.9687    -1.8138     2.6395 H       
  42 H42           -6.1067    -2.5542    -0.1756 H       
  43 H43            1.0608    -2.0965     0.3639 H       
  44 H44           -6.6822     0.0579     2.1286 H       
  45 H45           -8.2471     0.6360     4.0394 H       
  46 H46           -7.7878    -0.9344     4.8906 H       
  47 H47           -5.3654    -0.1856     4.9647 H       
  48 H48           -5.8247     1.3847     4.1136 H       
  49 H49           -0.2554    -4.2546     2.9141 H       
  50 H50            3.4398    -4.9649     4.6844 H       
  51 H51            4.5005    -3.3880     3.1216 H       
@<TRIPOS>BOND
   1    1    2 1
   2    1    5 1
   3    1   29 1
   4    1   30 1
   5    2    3 1
   6    2    6 1
   7    2   31 1
   8    3    4 1
   9    3   32 1
  10    3   33 1
  11    4   16 1
  12    4   34 1
  13    4   35 1
  14    5   16 1
  15    5   36 1
  16    5   37 1
  17    6    7 1
  18    6   38 1
  19    6   39 1
  20    7    8 1
  21    7   10 1
  22    7   40 1
  23    8    9 2
  24    8   15 am
  25   10   11 1
  26   10   14 1
  27   11   12 2
  28   11   41 1
  29   12   13 1
  30   12   17 1
  31   13   14 2
  32   13   42 1
  33   15   23 1
  34   15   43 1
  35   17   18 2
  36   17   19 2
  37   17   20 1
  38   20   21 1
  39   20   22 1
  40   20   44 1
  41   21   22 1
  42   21   45 1
  43   21   46 1
  44   22   47 1
  45   22   48 1
  46   23   24 ar
  47   23   28 ar
  48   24   25 ar
  49   24   49 1
  50   25   26 ar
  51   26   27 ar
  52   26   50 1
  53   27   28 ar
  54   27   51 1

#	End of record

