#	Name: ASD01320103
#	Creating user name:	WinNT
#	Creation time:	15. 06. 2019 19:16

#	Modifying user name:	WinNT
#	Modification time:	15. 06. 2019 19:16

#	Program:	/corina/corina34_cracker 3.40 0067  02.08.2006

@<TRIPOS>MOLECULE
ASD01320103
  28   28    0    0    0
SMALL
NO_CHARGES


@<TRIPOS>ATOM
   1 P1            -0.0180     1.4758     0.0102 P.3     
   2 O2             0.0021    -0.0041     0.0020 O.2     
   3 O3             1.4924     2.0330    -0.0013 O.3     
   4 O4            -0.7967     2.0091    -1.2942 O.3     
   5 C5            -1.9518     2.3854     5.3284 C.3     
   6 O6            -1.7985     3.8033     5.2388 O.3     
   7 C7            -3.3893     2.0521     5.7363 C.3     
   8 C8            -4.3488     2.5559     4.6538 C.3     
   9 O9            -4.2558     3.9786     4.5571 O.3     
  10 C10           -3.9641     1.9249     3.3121 C.3     
  11 O11           -4.8071     2.4435     2.2813 O.3     
  12 C12           -2.5045     2.2631     2.9978 C.3     
  13 O13           -1.6693     1.7943     4.0584 O.3     
  14 C14           -2.0945     1.5864     1.6883 C.3     
  15 O15           -0.7716     1.9950     1.3348 O.3     
  16 H16            2.0070     1.7589    -0.7727 H       
  17 H17           -0.8486     2.9728    -1.3546 H       
  18 H18           -1.2616     1.9915     6.0744 H       
  19 H19           -0.9100     4.0875     4.9840 H       
  20 H20           -3.4963     0.9727     5.8442 H       
  21 H21           -3.6211     2.5386     6.6837 H       
  22 H22           -5.3697     2.2740     4.9115 H       
  23 H23           -4.4795     4.4439     5.3748 H       
  24 H24           -4.0839     0.8431     3.3707 H       
  25 H25           -5.7484     2.2697     2.4184 H       
  26 H26           -2.3947     3.3431     2.8990 H       
  27 H27           -2.1187     0.5041     1.8155 H       
  28 H28           -2.7873     1.8749     0.8978 H       
@<TRIPOS>BOND
   1    1    2 2
   2    1    3 1
   3    1    4 1
   4    1   15 1
   5    3   16 1
   6    4   17 1
   7    5    6 1
   8    5    7 1
   9    5   13 1
  10    5   18 1
  11    6   19 1
  12    7    8 1
  13    7   20 1
  14    7   21 1
  15    8    9 1
  16    8   10 1
  17    8   22 1
  18    9   23 1
  19   10   11 1
  20   10   12 1
  21   10   24 1
  22   11   25 1
  23   12   13 1
  24   12   14 1
  25   12   26 1
  26   14   15 1
  27   14   27 1
  28   14   28 1

#	End of record

