#	Name: ASD01840246
#	Creating user name:	WinNT
#	Creation time:	15. 06. 2019 19:37

#	Modifying user name:	WinNT
#	Modification time:	15. 06. 2019 19:37

#	Program:	/corina/corina34_cracker 3.40 0067  02.08.2006

@<TRIPOS>MOLECULE
ASD01840246
  51   54    0    0    0
SMALL
NO_CHARGES


@<TRIPOS>ATOM
   1 C1            -1.2011     1.5038    -0.0872 C.3     
   2 C2            -0.7314     0.0718    -0.0933 C.ar    
   3 C3            -0.6890    -0.6259    -1.2892 C.ar    
   4 C4            -0.2585    -1.9359    -1.2925 C.ar    
   5 C5            -0.2001    -2.7225    -2.5766 C.3     
   6 C6             0.1265    -2.5246    -0.0701 C.ar    
   7 C7             0.0567    -1.7593     1.0922 C.ar    
   8 N8            -0.3640    -0.4921     1.0344 N.ar    
   9 S9             0.5849    -2.7067     2.4755 S.3     
  10 C10            0.8983    -4.1274     1.4910 C.2     
  11 C11            1.3547    -5.4667     1.5920 C.2     
  12 N12            1.7505    -6.1098     2.7715 N.pl3   
  13 C13            2.2024    -7.5028     2.7301 C.3     
  14 C14            2.5679    -7.9539     4.1208 C.ar    
  15 C15            3.8591    -7.7855     4.5850 C.ar    
  16 C16            4.1944    -8.1992     5.8606 C.ar    
  17 C17            3.2385    -8.7809     6.6722 C.ar    
  18 C18            1.9471    -8.9485     6.2083 C.ar    
  19 C19            1.6107    -8.5309     4.9342 C.ar    
  20 S20            3.6662    -9.3094     8.2978 S.o2    
  21 C21            3.3457    -7.8620     9.3432 C.3     
  22 O22            2.7384   -10.3468     8.5845 O.2     
  23 O23            5.0606    -9.5730     8.2250 O.2     
  24 N24            1.3431    -5.9993     0.3982 N.2     
  25 N25            0.8867    -5.0485    -0.5187 N.pl3   
  26 C26            0.7259    -5.2484    -1.9610 C.3     
  27 C27           -0.6917    -5.7447    -2.2522 C.3     
  28 O28           -0.8486    -5.9397    -3.6591 O.3     
  29 C29            0.6130    -3.8850     0.1782 C.2     
  30 H30           -0.3493     2.1662    -0.2415 H       
  31 H31           -1.9261     1.6518    -0.8875 H       
  32 H32           -1.6675     1.7290     0.8719 H       
  33 H33           -0.9905    -0.1486    -2.2099 H       
  34 H34            0.8217    -2.7232    -2.9561 H       
  35 H35           -0.5189    -3.7479    -2.3893 H       
  36 H36           -0.8609    -2.2653    -3.3131 H       
  37 H37            1.7254    -5.6330     3.6158 H       
  38 H38            1.4020    -8.1330     2.3423 H       
  39 H39            3.0745    -7.5827     2.0812 H       
  40 H40            4.6059    -7.3310     3.9509 H       
  41 H41            5.2033    -8.0683     6.2230 H       
  42 H42            1.2004    -9.4033     6.8423 H       
  43 H43            0.6009    -8.6583     4.5732 H       
  44 H44            2.2940    -7.5857     9.2687 H       
  45 H45            3.5859    -8.1017    10.3791 H       
  46 H46            3.9647    -7.0290     9.0101 H       
  47 H47            0.8941    -4.3045    -2.4796 H       
  48 H48            1.4481    -5.9873    -2.3082 H       
  49 H49           -0.8599    -6.6886    -1.7336 H       
  50 H50           -1.4139    -5.0058    -1.9051 H       
  51 H51           -1.7257    -6.2548    -3.9172 H       
@<TRIPOS>BOND
   1    1    2 1
   2    1   30 1
   3    1   31 1
   4    1   32 1
   5    2    8 ar
   6    2    3 ar
   7    3    4 ar
   8    3   33 1
   9    4    5 1
  10    4    6 ar
  11    5   34 1
  12    5   35 1
  13    5   36 1
  14    6   29 1
  15    6    7 ar
  16    7    8 ar
  17    7    9 1
  18    9   10 1
  19   10   29 2
  20   10   11 1
  21   11   12 1
  22   11   24 2
  23   12   13 1
  24   12   37 1
  25   13   14 1
  26   13   38 1
  27   13   39 1
  28   14   19 ar
  29   14   15 ar
  30   15   16 ar
  31   15   40 1
  32   16   17 ar
  33   16   41 1
  34   17   18 ar
  35   17   20 1
  36   18   19 ar
  37   18   42 1
  38   19   43 1
  39   20   21 1
  40   20   22 2
  41   20   23 2
  42   21   44 1
  43   21   45 1
  44   21   46 1
  45   24   25 1
  46   25   26 1
  47   25   29 1
  48   26   27 1
  49   26   47 1
  50   26   48 1
  51   27   28 1
  52   27   49 1
  53   27   50 1
  54   28   51 1

#	End of record

