#	Name: ASD04590130
#	Creating user name:	WinNT
#	Creation time:	15. 06. 2019 20:50

#	Modifying user name:	WinNT
#	Modification time:	15. 06. 2019 20:50

#	Program:	/corina/corina34_cracker 3.40 0067  02.08.2006

@<TRIPOS>MOLECULE
ASD04590130
  47   49    0    0    0
SMALL
NO_CHARGES


@<TRIPOS>ATOM
   1 N1            -0.0153     1.2802     0.0091 N.pl3   
   2 N2             0.0021    -0.0041     0.0020 N.2     
   3 C3             1.2455    -0.4440    -0.0122 C.2     
   4 C4             2.0903     0.6961    -0.0142 C.2     
   5 C5             1.2523     1.7667    -0.0004 C.2     
   6 C6             1.6764    -1.8547    -0.0239 C.2     
   7 N7             0.7571    -2.8402    -0.0209 N.am    
   8 O8             2.8611    -2.1284    -0.0362 O.2     
   9 N9             3.4929     0.7146    -0.0270 N.am    
  10 C10            4.1513     1.8906    -0.0271 C.2     
  11 C11            6.3412     1.9132     1.1611 C.ar    
  12 C12            5.6278     1.9101    -0.0406 C.ar    
  13 C13            1.1850    -4.2412    -0.0325 C.3     
  14 C14            0.0893    -5.1143     0.5823 C.3     
  15 C15           -1.1973    -4.9673    -0.2325 C.3     
  16 C16           -0.9412    -5.4104    -1.6744 C.3     
  17 C17            0.1545    -4.5373    -2.2893 C.3     
  18 C18            1.4411    -4.6843    -1.4744 C.3     
  19 C19            7.7219     1.9310     1.1402 C.ar    
  20 C20            8.3988     1.9463    -0.0661 C.ar    
  21 C21            7.6997     1.9429    -1.2598 C.ar    
  22 C22            6.3189     1.9252    -1.2553 C.ar    
  23 O23            3.5296     2.9355    -0.0159 O.2     
  24 O24           -2.1428    -5.2731    -2.4355 O.3     
  25 Cl25           5.4939     1.9018     2.6762 Cl      
  26 Cl26           5.4437     1.9210    -2.7545 Cl      
  27 C27           -2.2642    -6.2133    -3.5047 C.3     
  28 H28           -0.8184     1.8242     0.0160 H       
  29 H29            1.5405     2.8076     0.0021 H       
  30 H30           -0.1880    -2.6218    -0.0111 H       
  31 H31            3.9889    -0.1189    -0.0359 H       
  32 H32            2.1016    -4.3460     0.5480 H       
  33 H33            0.4077    -6.1567     0.5737 H       
  34 H34           -0.0931    -4.7986     1.6096 H       
  35 H35           -1.9779    -5.5893     0.2055 H       
  36 H36           -1.5157    -3.9249    -0.2239 H       
  37 H37           -0.6227    -6.4528    -1.6830 H       
  38 H38            0.3370    -4.8530    -3.3165 H       
  39 H39           -0.1639    -3.4949    -2.2806 H       
  40 H40            2.2217    -4.0623    -1.9124 H       
  41 H41            1.7595    -5.7268    -1.4830 H       
  42 H42            8.2746     1.9334     2.0680 H       
  43 H43            9.4786     1.9610    -0.0760 H       
  44 H44            8.2351     1.9550    -2.1976 H       
  45 H45           -2.2530    -7.2258    -3.1013 H       
  46 H46           -3.2022    -6.0432    -4.0334 H       
  47 H47           -1.4301    -6.0880    -4.1952 H       
@<TRIPOS>BOND
   1    1    2 1
   2    1    5 1
   3    1   28 1
   4    2    3 2
   5    3    4 1
   6    3    6 1
   7    4    5 2
   8    4    9 1
   9    5   29 1
  10    6    7 am
  11    6    8 2
  12    7   13 1
  13    7   30 1
  14    9   10 am
  15    9   31 1
  16   10   23 2
  17   10   12 1
  18   11   12 ar
  19   11   19 ar
  20   11   25 1
  21   12   22 ar
  22   13   14 1
  23   13   18 1
  24   13   32 1
  25   14   15 1
  26   14   33 1
  27   14   34 1
  28   15   16 1
  29   15   35 1
  30   15   36 1
  31   16   17 1
  32   16   24 1
  33   16   37 1
  34   17   18 1
  35   17   38 1
  36   17   39 1
  37   18   40 1
  38   18   41 1
  39   19   20 ar
  40   19   42 1
  41   20   21 ar
  42   20   43 1
  43   21   22 ar
  44   21   44 1
  45   22   26 1
  46   24   27 1
  47   27   45 1
  48   27   46 1
  49   27   47 1

#	End of record

