#	Name: ASD01814171
#	Creating user name:	WinNT
#	Creation time:	15. 06. 2019 19:31

#	Modifying user name:	WinNT
#	Modification time:	15. 06. 2019 19:31

#	Program:	/corina/corina34_cracker 3.40 0067  02.08.2006

@<TRIPOS>MOLECULE
ASD01814171
  55   59    0    0    0
SMALL
NO_CHARGES


@<TRIPOS>ATOM
   1 N1            -0.1914     2.4459     3.3439 N.2     
   2 C2            -0.2464     1.4657     4.2145 C.2     
   3 C3             0.8614     1.1777     5.0263 C.2     
   4 C4             1.9891     1.9208     4.9031 C.2     
   5 N5             2.0195     2.9352     3.9889 N.pl3   
   6 C6             0.9172     3.1866     3.2135 C.2     
   7 N7             3.0077     3.8586     3.6328 N.2     
   8 C8             2.5373     4.6420     2.6832 C.2     
   9 C9             1.2392     4.2591     2.3903 C.2     
  10 C10            2.9089     5.8075     1.7997 C.3     
  11 N11            1.7529     6.1102     0.9503 N.am    
  12 C12            0.6993     5.1537     1.3042 C.3     
  13 C13            1.6736     7.0829     0.0207 C.2     
  14 O14            0.6881     7.1695    -0.6861 O.2     
  15 C15            2.7827     8.0426    -0.1392 C.ar    
  16 C16            2.5177     9.4145    -0.2459 C.ar    
  17 C17            4.1037     7.5894    -0.1794 C.ar    
  18 C18            5.1350     8.4908    -0.3290 C.ar    
  19 C19            4.8685     9.8459    -0.4394 C.ar    
  20 C20            3.5682    10.3078    -0.3960 C.ar    
  21 O21            1.2395     9.8669    -0.2031 O.3     
  22 C22            1.0523    11.2835    -0.2065 C.3     
  23 C23           -0.3224    11.6437     0.3937 C.3     
  24 C24            3.1921     1.6318     5.7635 C.3     
  25 Cl25           0.7889    -0.1186     6.1787 Cl      
  26 C26           -1.5046     0.6464     4.3436 C.3     
  27 O27           -0.1618    12.5171     1.5132 O.3     
  28 C28            1.0092    11.8152    -1.6552 C.3     
  29 N29           -0.0119    12.8939    -1.6279 N.3     
  30 C30           -1.0804    12.3627    -0.7429 C.3     
  31 C31           -0.5300    13.1626    -2.9760 C.3     
  32 H32            3.1526     6.6740     2.4144 H       
  33 H33            3.7643     5.5420     1.1785 H       
  34 H34            0.4334     4.5567     0.4319 H       
  35 H35           -0.1779     5.6887     1.6683 H       
  36 H36            4.3162     6.5340    -0.0929 H       
  37 H37            6.1558     8.1394    -0.3599 H       
  38 H38            5.6830    10.5455    -0.5557 H       
  39 H39            3.3687    11.3659    -0.4790 H       
  40 H40            1.8507    11.7716     0.3524 H       
  41 H41           -0.8536    10.7400     0.6925 H       
  42 H42            2.9731     0.7929     6.4242 H       
  43 H43            4.0416     1.3817     5.1281 H       
  44 H44            3.4316     2.5117     6.3606 H       
  45 H45           -2.2510     1.0132     3.6390 H       
  46 H46           -1.2819    -0.3982     4.1260 H       
  47 H47           -1.8911     0.7316     5.3593 H       
  48 H48           -0.9953    12.8129     1.9041 H       
  49 H49            1.9807    12.2185    -1.9411 H       
  50 H50            0.7081    11.0240    -2.3417 H       
  51 H51           -1.7085    11.6572    -1.2867 H       
  52 H52           -1.6823    13.1782    -0.3420 H       
  53 H53           -0.9879    12.2580    -3.3762 H       
  54 H54           -1.2756    13.9562    -2.9271 H       
  55 H55            0.2890    13.4730    -3.6248 H       
@<TRIPOS>BOND
   1    1    2 2
   2    1    6 1
   3    2    3 1
   4    2   26 1
   5    3    4 2
   6    3   25 1
   7    4    5 1
   8    4   24 1
   9    5    7 1
  10    5    6 1
  11    6    9 2
  12    7    8 2
  13    8   10 1
  14    8    9 1
  15    9   12 1
  16   10   11 1
  17   10   32 1
  18   10   33 1
  19   11   12 1
  20   11   13 am
  21   12   34 1
  22   12   35 1
  23   13   14 2
  24   13   15 1
  25   15   17 ar
  26   15   16 ar
  27   16   20 ar
  28   16   21 1
  29   17   18 ar
  30   17   36 1
  31   18   19 ar
  32   18   37 1
  33   19   20 ar
  34   19   38 1
  35   20   39 1
  36   21   22 1
  37   22   28 1
  38   22   23 1
  39   22   40 1
  40   23   27 1
  41   23   30 1
  42   23   41 1
  43   24   42 1
  44   24   43 1
  45   24   44 1
  46   26   45 1
  47   26   46 1
  48   26   47 1
  49   27   48 1
  50   28   29 1
  51   28   49 1
  52   28   50 1
  53   29   30 1
  54   29   31 1
  55   30   51 1
  56   30   52 1
  57   31   53 1
  58   31   54 1
  59   31   55 1

#	End of record

