#	Name: ASD01901029
#	Creating user name:	WinNT
#	Creation time:	15. 06. 2019 19:53

#	Modifying user name:	WinNT
#	Modification time:	15. 06. 2019 19:53

#	Program:	/corina/corina34_cracker 3.40 0067  02.08.2006

@<TRIPOS>MOLECULE
ASD01901029
  27   28    0    0    0
SMALL
NO_CHARGES


@<TRIPOS>ATOM
   1 C1             0.0021    -0.0041     0.0020 C.1     
   2 C2            -0.0173     1.4278     0.0099 C.ar    
   3 C3             1.1791     2.1425     0.0023 C.ar    
   4 C4             1.1506     3.5370     0.0096 C.ar    
   5 C5            -0.0768     4.2075     0.0244 C.ar    
   6 C6            -1.2571     3.4923     0.0319 C.ar    
   7 C7            -1.2359     2.1114     0.0194 C.ar    
   8 N8             0.0175    -1.1399    -0.0042 N.1     
   9 C9             2.4104     4.3018     0.0021 C.2     
  10 C10            2.3808     5.6448     0.0092 C.2     
  11 C11            5.9465     6.4650    -0.0191 C.ar    
  12 N12            4.8153     5.7786    -0.0120 N.ar    
  13 C13            3.6394     6.4089     0.0017 C.ar    
  14 C14            3.6220     7.8105     0.0085 C.ar    
  15 C15            4.8292     8.4833     0.0006 C.ar    
  16 N16            5.9578     7.7903    -0.0130 N.ar    
  17 N17            7.1498     5.7810    -0.0274 N.pl3   
  18 H18            2.1237     1.6191    -0.0088 H       
  19 H19           -0.1009     5.2872     0.0304 H       
  20 H20           -2.2021     4.0151     0.0433 H       
  21 H21           -2.1636     1.5585     0.0207 H       
  22 H22            3.3573     3.7825    -0.0090 H       
  23 H23            1.4339     6.1641     0.0203 H       
  24 H24            2.6874     8.3517     0.0192 H       
  25 H25            4.8520     9.5630     0.0055 H       
  26 H26            7.1563     4.8110    -0.0280 H       
  27 H27            7.9866     6.2715    -0.0327 H       
@<TRIPOS>BOND
   1    1    2 1
   2    1    8 3
   3    2    3 ar
   4    2    7 ar
   5    3    4 ar
   6    3   18 1
   7    4    5 ar
   8    4    9 1
   9    5    6 ar
  10    5   19 1
  11    6    7 ar
  12    6   20 1
  13    7   21 1
  14    9   10 2
  15    9   22 1
  16   10   13 1
  17   10   23 1
  18   11   12 ar
  19   11   16 ar
  20   11   17 1
  21   12   13 ar
  22   13   14 ar
  23   14   15 ar
  24   14   24 1
  25   15   16 ar
  26   15   25 1
  27   17   26 1
  28   17   27 1

#	End of record

