#	Name: ASD01200260
#	Creating user name:	WinNT
#	Creation time:	15. 06. 2019 19:08

#	Modifying user name:	WinNT
#	Modification time:	15. 06. 2019 19:08

#	Program:	/corina/corina34_cracker 3.40 0067  02.08.2006

@<TRIPOS>MOLECULE
ASD01200260
  40   42    0    0    0
SMALL
NO_CHARGES


@<TRIPOS>ATOM
   1 C1            -0.0167     1.3793     0.0096 C.ar    
   2 C2             0.0021    -0.0041     0.0020 C.ar    
   3 C3             1.2098    -0.6789    -0.0131 C.ar    
   4 C4             2.3967     0.0292    -0.0207 C.ar    
   5 C5             2.3773     1.4115    -0.0131 C.ar    
   6 C6             1.1709     2.0863     0.0021 C.ar    
   7 Cl7           -1.4892    -0.8928     0.0121 Cl      
   8 C8             3.6719     2.1830    -0.0208 C.3     
   9 S9             4.1745     2.5010    -1.7303 S.3     
  10 C10            5.6701     3.3892    -1.4492 C.2     
  11 N11            6.1867     3.6837    -0.2746 N.2     
  12 C12            7.3258     4.3640    -0.4420 C.2     
  13 N13            7.5496     4.5115    -1.7252 N.2     
  14 N14            6.4915     3.8826    -2.4008 N.pl3   
  15 N15            8.1448     4.8411     0.5849 N.am    
  16 C16            9.2730     5.5162     0.2886 C.2     
  17 C17           10.1393     6.0209     1.3748 C.ar    
  18 O18            9.5782     5.7101    -0.8720 O.2     
  19 C19           11.3077     6.7199     1.0709 C.ar    
  20 C20            9.7882     5.8046     2.7087 C.ar    
  21 C21           10.5988     6.2774     3.7200 C.ar    
  22 C22           11.7594     6.9657     3.4172 C.ar    
  23 C23           12.1140     7.1901     2.0940 C.ar    
  24 O24           13.2558     7.8672     1.8023 O.3     
  25 C25           14.0424     8.3187     2.9066 C.3     
  26 H26           -0.9592     1.9066     0.0170 H       
  27 H27            1.2250    -1.7588    -0.0187 H       
  28 H28            3.3395    -0.4974    -0.0321 H       
  29 H29            1.1564     3.1662     0.0080 H       
  30 H30            3.5331     3.1307     0.4994 H       
  31 H31            4.4442     1.6017     0.4829 H       
  32 H32            6.3715     3.8197    -3.3613 H       
  33 H33            7.9012     4.6864     1.5110 H       
  34 H34           11.5827     6.8936     0.0411 H       
  35 H35            8.8823     5.2678     2.9488 H       
  36 H36           10.3259     6.1098     4.7514 H       
  37 H37           12.3898     7.3338     4.2130 H       
  38 H38           14.9232     8.8426     2.5352 H       
  39 H39           13.4498     8.9954     3.5222 H       
  40 H40           14.3543     7.4624     3.5046 H       
@<TRIPOS>BOND
   1    1    2 ar
   2    1    6 ar
   3    1   26 1
   4    2    3 ar
   5    2    7 1
   6    3    4 ar
   7    3   27 1
   8    4    5 ar
   9    4   28 1
  10    5    6 ar
  11    5    8 1
  12    6   29 1
  13    8    9 1
  14    8   30 1
  15    8   31 1
  16    9   10 1
  17   10   11 2
  18   10   14 1
  19   11   12 1
  20   12   13 2
  21   12   15 1
  22   13   14 1
  23   14   32 1
  24   15   16 am
  25   15   33 1
  26   16   17 1
  27   16   18 2
  28   17   19 ar
  29   17   20 ar
  30   19   23 ar
  31   19   34 1
  32   20   21 ar
  33   20   35 1
  34   21   22 ar
  35   21   36 1
  36   22   23 ar
  37   22   37 1
  38   23   24 1
  39   24   25 1
  40   25   38 1
  41   25   39 1
  42   25   40 1

#	End of record

