#	Name: ASD01200164
#	Creating user name:	WinNT
#	Creation time:	15. 06. 2019 19:08

#	Modifying user name:	WinNT
#	Modification time:	15. 06. 2019 19:08

#	Program:	/corina/corina34_cracker 3.40 0067  02.08.2006

@<TRIPOS>MOLECULE
ASD01200164
  48   50    0    0    0
SMALL
NO_CHARGES


@<TRIPOS>ATOM
   1 C1             0.9629     1.5643    -1.4054 C.2     
   2 C2             0.7554     0.0792    -1.2557 C.3     
   3 O3             1.7495     2.1423    -0.6856 O.2     
   4 N4             0.2785     2.2493    -2.3429 N.am    
   5 S5            -0.3283     4.6092    -3.6236 S.3     
   6 C6             0.4700     3.6191    -2.4811 C.2     
   7 N7             1.2792     4.3319    -1.7619 N.2     
   8 C8             1.3360     5.6233    -2.0288 C.2     
   9 C9             0.5368     6.0205    -3.0208 C.2     
  10 S10            1.8169    -0.5486     0.0746 S.3     
  11 N11            2.6111    -3.0822    -0.4112 N.am    
  12 C12            1.4530    -2.3257     0.0827 C.3     
  13 C13            1.2210    -2.8037     1.4972 C.2     
  14 C14            2.1475    -3.7213     1.7546 C.2     
  15 C15            3.0097    -3.8992     0.5818 C.2     
  16 O16            3.9468    -4.6716     0.5157 O.2     
  17 C17            2.2903    -4.4673     3.0562 C.3     
  18 C18            0.1435    -2.3296     2.4381 C.3     
  19 C19            3.2164    -2.9726    -1.7407 C.3     
  20 C20            4.2928    -1.9181    -1.7172 C.ar    
  21 C21            5.5942    -2.2671    -1.4069 C.ar    
  22 C22            6.5827    -1.3023    -1.3847 C.ar    
  23 C23            6.2687     0.0177    -1.6740 C.ar    
  24 C24            4.9621     0.3653    -1.9851 C.ar    
  25 C25            3.9783    -0.6042    -2.0115 C.ar    
  26 O26            7.2392     0.9687    -1.6524 O.3     
  27 C27            6.8434     2.3067    -1.9606 C.3     
  28 H28           -0.2883    -0.1190    -1.0118 H       
  29 H29            1.0111    -0.4195    -2.1906 H       
  30 H30           -0.3476     1.7863    -2.9213 H       
  31 H31            1.9773     6.3035    -1.4879 H       
  32 H32            0.4376     7.0307    -3.3897 H       
  33 H33            0.5781    -2.5327    -0.5336 H       
  34 H34            1.6962    -5.3804     3.0188 H       
  35 H35            3.3380    -4.7218     3.2161 H       
  36 H36            1.9400    -3.8392     3.8753 H       
  37 H37           -0.7571    -2.9251     2.2888 H       
  38 H38            0.4855    -2.4397     3.4672 H       
  39 H39           -0.0772    -1.2809     2.2389 H       
  40 H40            3.6529    -3.9311    -2.0214 H       
  41 H41            2.4518    -2.6952    -2.4664 H       
  42 H42            5.8381    -3.2947    -1.1814 H       
  43 H43            7.5990    -1.5753    -1.1419 H       
  44 H44            4.7151     1.3922    -2.2106 H       
  45 H45            2.9619    -0.3350    -2.2582 H       
  46 H46            6.4240     2.3391    -2.9662 H       
  47 H47            6.0927     2.6380    -1.2430 H       
  48 H48            7.7115     2.9638    -1.9076 H       
@<TRIPOS>BOND
   1    1    2 1
   2    1    3 2
   3    1    4 am
   4    2   10 1
   5    2   28 1
   6    2   29 1
   7    4    6 1
   8    4   30 1
   9    5    6 1
  10    5    9 1
  11    6    7 2
  12    7    8 1
  13    8    9 2
  14    8   31 1
  15    9   32 1
  16   10   12 1
  17   11   12 1
  18   11   15 am
  19   11   19 1
  20   12   13 1
  21   12   33 1
  22   13   14 2
  23   13   18 1
  24   14   15 1
  25   14   17 1
  26   15   16 2
  27   17   34 1
  28   17   35 1
  29   17   36 1
  30   18   37 1
  31   18   38 1
  32   18   39 1
  33   19   20 1
  34   19   40 1
  35   19   41 1
  36   20   21 ar
  37   20   25 ar
  38   21   22 ar
  39   21   42 1
  40   22   23 ar
  41   22   43 1
  42   23   24 ar
  43   23   26 1
  44   24   25 ar
  45   24   44 1
  46   25   45 1
  47   26   27 1
  48   27   46 1
  49   27   47 1
  50   27   48 1

#	End of record

