#	Name: ASD02038342
#	Creating user name:	WinNT
#	Creation time:	15. 06. 2019 20:16

#	Modifying user name:	WinNT
#	Modification time:	15. 06. 2019 20:16

#	Program:	/corina/corina34_cracker 3.40 0067  02.08.2006

@<TRIPOS>MOLECULE
ASD02038342
  49   51    0    0    0
SMALL
NO_CHARGES


@<TRIPOS>ATOM
   1 C1             0.1084     1.4573     0.2817 C.3     
   2 C2             0.1413    -0.0825     0.3361 C.3     
   3 N3             1.5715    -0.4082     0.2315 N.am    
   4 C4             2.2753     0.7271     0.1321 C.2     
   5 N5             1.5236     1.8356     0.1523 N.am    
   6 C6             2.1368    -1.7597     0.2355 C.3     
   7 C7             2.2164    -2.2835    -1.1998 C.3     
   8 C8             2.8067    -3.6950    -1.1956 C.3     
   9 C9             2.8851    -4.2109    -2.6094 C.ar    
  10 C10            4.0224    -3.9868    -3.3635 C.ar    
  11 C11            4.0975    -4.4581    -4.6594 C.ar    
  12 C12            3.0290    -5.1581    -5.2053 C.ar    
  13 C13            1.8881    -5.3815    -4.4450 C.ar    
  14 C14            1.8218    -4.9123    -3.1478 C.ar    
  15 N15            3.1015    -5.6359    -6.5158 N.am    
  16 O16            3.4869     0.7495     0.0328 O.2     
  17 C17            2.0081     3.1461     0.0642 C.ar    
  18 C18            1.1213     4.2109    -0.0222 C.ar    
  19 C19            3.3763     3.3833     0.0688 C.ar    
  20 C20            3.8519     4.6780    -0.0184 C.ar    
  21 C21            2.9647     5.7378    -0.1097 C.ar    
  22 C22            1.6013     5.5033    -0.1091 C.ar    
  23 Cl23           5.5621     4.9762    -0.0128 Cl      
  24 Cl24           3.5644     7.3633    -0.2179 Cl      
  25 S25            4.0220    -6.9684    -6.8616 S.o2    
  26 O26            3.8335    -7.1724    -8.2552 O.2     
  27 O27            5.3036    -6.6555    -6.3337 O.2     
  28 C28            3.2524    -8.3089    -5.9122 C.3     
  29 H29           -0.4593     1.7975    -0.5843 H       
  30 H30           -0.3137     1.8636     1.2009 H       
  31 H31           -0.2644    -0.4406     1.2823 H       
  32 H32           -0.4101    -0.5068    -0.5029 H       
  33 H33            3.1366    -1.7341     0.6689 H       
  34 H34            1.5008    -2.4178     0.8277 H       
  35 H35            1.2166    -2.3091    -1.6332 H       
  36 H36            2.8523    -1.6255    -1.7920 H       
  37 H37            3.8065    -3.6694    -0.7623 H       
  38 H38            2.1708    -4.3531    -0.6035 H       
  39 H39            4.8526    -3.4421    -2.9387 H       
  40 H40            4.9859    -4.2824    -5.2480 H       
  41 H41            1.0556    -5.9254    -4.8663 H       
  42 H42            0.9352    -5.0859    -2.5560 H       
  43 H43            2.6126    -5.1872    -7.2233 H       
  44 H44            0.0568     4.0288    -0.0218 H       
  45 H45            4.0680     2.5570     0.1407 H       
  46 H46            0.9116     6.3313    -0.1804 H       
  47 H47            2.2477    -8.4932    -6.2926 H       
  48 H48            3.8505    -9.2146    -6.0121 H       
  49 H49            3.1965    -8.0244    -4.8615 H       
@<TRIPOS>BOND
   1    1    2 1
   2    1    5 1
   3    1   29 1
   4    1   30 1
   5    2    3 1
   6    2   31 1
   7    2   32 1
   8    3    4 am
   9    3    6 1
  10    4    5 am
  11    4   16 2
  12    5   17 1
  13    6    7 1
  14    6   33 1
  15    6   34 1
  16    7    8 1
  17    7   35 1
  18    7   36 1
  19    8    9 1
  20    8   37 1
  21    8   38 1
  22    9   10 ar
  23    9   14 ar
  24   10   11 ar
  25   10   39 1
  26   11   12 ar
  27   11   40 1
  28   12   13 ar
  29   12   15 1
  30   13   14 ar
  31   13   41 1
  32   14   42 1
  33   15   25 am
  34   15   43 1
  35   17   18 ar
  36   17   19 ar
  37   18   22 ar
  38   18   44 1
  39   19   20 ar
  40   19   45 1
  41   20   21 ar
  42   20   23 1
  43   21   22 ar
  44   21   24 1
  45   22   46 1
  46   25   26 2
  47   25   27 2
  48   25   28 1
  49   28   47 1
  50   28   48 1
  51   28   49 1

#	End of record

