#	Name: ASD01140592
#	Creating user name:	WinNT
#	Creation time:	15. 06. 2019 19:01

#	Modifying user name:	WinNT
#	Modification time:	15. 06. 2019 19:01

#	Program:	/corina/corina34_cracker 3.40 0067  02.08.2006

@<TRIPOS>MOLECULE
ASD01140592
  41   45    0    0    0
SMALL
NO_CHARGES


@<TRIPOS>ATOM
   1 O1            -0.0163     1.3518     0.0095 O.3     
   2 O2             5.4327    -1.3587    -0.0368 O.3     
   3 N3             1.2265    -2.0299    -0.0205 N.pl3   
   4 N4             1.1424    -0.6382    -0.0123 N.2     
   5 N5             0.4985    -4.0708    -0.0241 N.2     
   6 N6             1.7842    -4.1206    -0.0342 N.2     
   7 N7             4.2240    -1.3283    -0.0309 N.2     
   8 N8             0.1278     5.4758     0.0307 N.pl3   
   9 N9             1.9752     4.4558     0.0076 N.2     
  10 N10            1.4079     5.6103     0.0195 N.2     
  11 C11           -1.2117    -2.1642     0.0016 C.ar    
  12 C12           -1.2596    -0.7514     0.0105 C.ar    
  13 C13            0.1027    -2.8119    -0.0140 C.2     
  14 C14            0.0021    -0.0041     0.0020 C.2     
  15 C15            2.2821    -2.8997    -0.0297 C.2     
  16 C16           -2.3972    -2.8979     0.0095 C.ar    
  17 C17           -2.4955    -0.1044     0.0255 C.ar    
  18 C18            3.7153    -2.5380    -0.0343 C.2     
  19 C19           -3.6057    -2.2370     0.0258 C.ar    
  20 C20           -3.6539    -0.8492     0.0314 C.ar    
  21 C21            1.2480     2.0178     0.0010 C.3     
  22 C22            4.8246    -3.4321    -0.0439 C.2     
  23 C23            1.0303     3.5090     0.0111 C.2     
  24 C24            5.9011    -2.6151    -0.0451 C.2     
  25 C25           -0.1598     4.1536     0.0259 C.2     
  26 C26            7.3484    -3.0349    -0.0544 C.3     
  27 C27           -0.8497     6.5668     0.0516 C.3     
  28 H28           -2.3682    -3.9774     0.0024 H       
  29 H29           -2.5436     0.9746     0.0327 H       
  30 H30           -4.5249    -2.8038     0.0318 H       
  31 H31           -4.6106    -0.3483     0.0433 H       
  32 H32            1.8174     1.7278     0.8840 H       
  33 H33            1.8004     1.7373    -0.8958 H       
  34 H34            4.8088    -4.5120    -0.0490 H       
  35 H35           -1.1414     3.7033     0.0331 H       
  36 H36            7.9837    -2.1492    -0.0530 H       
  37 H37            7.5586    -3.6341     0.8315 H       
  38 H38            7.5498    -3.6251    -0.9484 H       
  39 H39           -1.1026     6.8476    -0.9708 H       
  40 H40           -1.7498     6.2383     0.5713 H       
  41 H41           -0.4241     7.4261     0.5697 H       
@<TRIPOS>BOND
   1    1   14 1
   2    1   21 1
   3    2    7 1
   4    2   24 1
   5    3    4 1
   6    3   13 1
   7    3   15 1
   8    4   14 2
   9    5    6 1
  10    5   13 2
  11    6   15 2
  12    7   18 2
  13    8   10 1
  14    8   25 1
  15    8   27 1
  16    9   10 2
  17    9   23 1
  18   11   12 ar
  19   11   13 1
  20   11   16 ar
  21   12   14 1
  22   12   17 ar
  23   15   18 1
  24   16   19 ar
  25   16   28 1
  26   17   20 ar
  27   17   29 1
  28   18   22 1
  29   19   20 ar
  30   19   30 1
  31   20   31 1
  32   21   23 1
  33   21   32 1
  34   21   33 1
  35   22   24 2
  36   22   34 1
  37   23   25 2
  38   24   26 1
  39   25   35 1
  40   26   36 1
  41   26   37 1
  42   26   38 1
  43   27   39 1
  44   27   40 1
  45   27   41 1

#	End of record

