#	Name: ASD01420337
#	Creating user name:	WinNT
#	Creation time:	15. 06. 2019 19:20

#	Modifying user name:	WinNT
#	Modification time:	15. 06. 2019 19:20

#	Program:	/corina/corina34_cracker 3.40 0067  02.08.2006

@<TRIPOS>MOLECULE
ASD01420337
  51   53    0    0    0
SMALL
NO_CHARGES


@<TRIPOS>ATOM
   1 C1            -0.0179     1.4683     0.0101 C.2     
   2 C2             0.0021    -0.0041     0.0020 C.ar    
   3 C3             1.2302    -0.6920    -0.0134 C.ar    
   4 C4             1.2517    -2.0767    -0.0206 C.ar    
   5 C5             0.0663    -2.7921    -0.0131 C.ar    
   6 C6            -1.1682    -2.1129     0.0024 C.ar    
   7 C7            -1.1932    -0.7171     0.0154 C.ar    
   8 O8             1.0262     2.0902     0.0035 O.2     
   9 O9            -1.1941     2.1262     0.0193 O.3     
  10 O10            0.0934    -4.1463    -0.0210 O.3     
  11 C11            1.3793    -4.7694    -0.0371 C.3     
  12 C12            1.2117    -6.2671    -0.0440 C.ar    
  13 C13            1.1231    -6.9472    -1.2442 C.ar    
  14 C14            0.9694    -8.3209    -1.2505 C.ar    
  15 C15            0.9046    -9.0146    -0.0566 C.ar    
  16 C16            0.9941    -8.3347     1.1436 C.ar    
  17 C17            1.1522    -6.9614     1.1499 C.ar    
  18 O18            2.3934     0.0020    -0.0217 O.3     
  19 C19            3.6028    -0.7591    -0.0373 C.3     
  20 C20            4.7846     0.1759    -0.0446 C.ar    
  21 C21            5.3386     0.5991     1.1491 C.ar    
  22 C22            6.4226     1.4568     1.1423 C.ar    
  23 C23            6.9530     1.8909    -0.0581 C.ar    
  24 C24            6.3997     1.4670    -1.2519 C.ar    
  25 C25            5.3183     0.6059    -1.2451 C.ar    
  26 C26           -2.4233    -2.8702     0.0103 C.2     
  27 O27           -2.3999    -4.0832     0.0036 O.2     
  28 C28           -3.7426    -2.1420     0.0268 C.3     
  29 C29           -1.1378     3.5771     0.0269 C.3     
  30 H30            2.1962    -2.6002    -0.0324 H       
  31 H31           -2.1370    -0.1922     0.0318 H       
  32 H32            1.9216    -4.4604    -0.9307 H       
  33 H33            1.9390    -4.4705     0.8492 H       
  34 H34            1.1737    -6.4052    -2.1770 H       
  35 H35            0.8995    -8.8522    -2.1882 H       
  36 H36            0.7838   -10.0878    -0.0615 H       
  37 H37            0.9431    -8.8766     2.0764 H       
  38 H38            1.2258    -6.4305     2.0875 H       
  39 H39            3.6454    -1.3917     0.8494 H       
  40 H40            3.6278    -1.3833    -0.9305 H       
  41 H41            4.9242     0.2600     2.0870 H       
  42 H42            6.8550     1.7880     2.0749 H       
  43 H43            7.7996     2.5616    -0.0634 H       
  44 H44            6.8139     1.8064    -2.1897 H       
  45 H45            4.8883     0.2717    -2.1778 H       
  46 H46           -3.8209    -1.5118    -0.8591 H       
  47 H47           -4.5572    -2.8662     0.0307 H       
  48 H48           -3.8039    -1.5214     0.9208 H       
  49 H49           -2.1505     3.9800     0.0339 H       
  50 H50           -0.6060     3.9154     0.9162 H       
  51 H51           -0.6144     3.9251    -0.8637 H       
@<TRIPOS>BOND
   1    1    2 1
   2    1    8 2
   3    1    9 1
   4    2    3 ar
   5    2    7 ar
   6    3    4 ar
   7    3   18 1
   8    4    5 ar
   9    4   30 1
  10    5    6 ar
  11    5   10 1
  12    6    7 ar
  13    6   26 1
  14    7   31 1
  15    9   29 1
  16   10   11 1
  17   11   12 1
  18   11   32 1
  19   11   33 1
  20   12   13 ar
  21   12   17 ar
  22   13   14 ar
  23   13   34 1
  24   14   15 ar
  25   14   35 1
  26   15   16 ar
  27   15   36 1
  28   16   17 ar
  29   16   37 1
  30   17   38 1
  31   18   19 1
  32   19   20 1
  33   19   39 1
  34   19   40 1
  35   20   21 ar
  36   20   25 ar
  37   21   22 ar
  38   21   41 1
  39   22   23 ar
  40   22   42 1
  41   23   24 ar
  42   23   43 1
  43   24   25 ar
  44   24   44 1
  45   25   45 1
  46   26   27 2
  47   26   28 1
  48   28   46 1
  49   28   47 1
  50   28   48 1
  51   29   49 1
  52   29   50 1
  53   29   51 1

#	End of record

