#	Name: ASD03081293
#	Creating user name:	WinNT
#	Creation time:	15. 06. 2019 20:27

#	Modifying user name:	WinNT
#	Modification time:	15. 06. 2019 20:27

#	Program:	/corina/corina34_cracker 3.40 0067  02.08.2006

@<TRIPOS>MOLECULE
ASD03081293
  26   28    0    0    0
SMALL
NO_CHARGES


@<TRIPOS>ATOM
   1 O1            -0.0162     1.3444     0.0094 O.3     
   2 C2             0.0021    -0.0041     0.0020 C.2     
   3 N3             1.2607    -0.3805    -0.0120 N.2     
   4 N4             2.0178     0.6598    -0.0137 N.2     
   5 C5             1.2726     1.7416    -0.0007 C.2     
   6 C6             0.8548     4.2023     0.0156 C.ar    
   7 C7             1.7574     3.1373     0.0017 C.ar    
   8 C8             3.1297     3.4143    -0.0094 C.ar    
   9 C9             3.5315     4.7385    -0.0061 C.ar    
  10 C10            2.5740     5.7366     0.0079 C.ar    
  11 N11            1.2870     5.4461     0.0182 N.ar    
  12 C12           -1.1767    -0.8945     0.0085 C.ar    
  13 C13           -1.0084    -2.2805    -0.0006 C.ar    
  14 C14           -2.1130    -3.1064     0.0055 C.ar    
  15 C15           -3.3867    -2.5637     0.0205 C.ar    
  16 C16           -3.5603    -1.1901     0.0291 C.ar    
  17 C17           -2.4638    -0.3535     0.0295 C.ar    
  18 Br18          -4.8956    -3.7035     0.0288 Br      
  19 H19           -0.2069     4.0044     0.0197 H       
  20 H20            3.8560     2.6151    -0.0199 H       
  21 H21            4.5817     4.9901    -0.0140 H       
  22 H22            2.8850     6.7709     0.0109 H       
  23 H23           -0.0154    -2.7050    -0.0126 H       
  24 H24           -1.9841    -4.1787    -0.0018 H       
  25 H25           -4.5564    -0.7729     0.0405 H       
  26 H26           -2.6004     0.7178     0.0410 H       
@<TRIPOS>BOND
   1    1    2 1
   2    1    5 1
   3    2    3 2
   4    2   12 1
   5    3    4 1
   6    4    5 2
   7    5    7 1
   8    6    7 ar
   9    6   11 ar
  10    6   19 1
  11    7    8 ar
  12    8    9 ar
  13    8   20 1
  14    9   10 ar
  15    9   21 1
  16   10   11 ar
  17   10   22 1
  18   12   13 ar
  19   12   17 ar
  20   13   14 ar
  21   13   23 1
  22   14   15 ar
  23   14   24 1
  24   15   16 ar
  25   15   18 1
  26   16   17 ar
  27   16   25 1
  28   17   26 1

#	End of record

