#	Name: ASD09530044
#	Creating user name:	WinNT
#	Creation time:	15. 06. 2019 21:22

#	Modifying user name:	WinNT
#	Modification time:	15. 06. 2019 21:22

#	Program:	/corina/corina34_cracker 3.40 0067  02.08.2006

@<TRIPOS>MOLECULE
ASD09530044
  49   51    0    0    0
SMALL
NO_CHARGES


@<TRIPOS>ATOM
   1 C1            -0.0167     1.3781     0.0096 C.ar    
   2 C2             0.0021    -0.0041     0.0020 C.ar    
   3 C3             1.2084    -0.6789    -0.0132 C.ar    
   4 C4             2.3960     0.0285    -0.0212 C.ar    
   5 C5             2.3773     1.4107    -0.0145 C.ar    
   6 C6             1.1710     2.0855     0.0021 C.ar    
   7 C7             3.6720     2.1819    -0.0223 C.3     
   8 C8             4.0910     2.4457    -1.4456 C.2     
   9 N9             5.2273     3.1249    -1.6987 N.am    
  10 O10            3.4058     2.0467    -2.3634 O.2     
  11 C11            5.6347     3.3813    -3.0824 C.3     
  12 C12            6.5139     4.6044    -3.1288 C.ar    
  13 N13            7.1925     4.9586    -2.0553 N.ar    
  14 C14            7.9745     6.0200    -2.0470 C.ar    
  15 C15            8.1104     6.8079    -3.1805 C.ar    
  16 C16            7.4085     6.4630    -4.3313 C.ar    
  17 C17            6.6025     5.3367    -4.2981 C.ar    
  18 O18            8.9174     7.9014    -3.1671 O.3     
  19 C19            9.6026     8.1871    -1.9461 C.3     
  20 C20           10.4560     9.4447    -2.1223 C.3     
  21 C21            6.4096     2.1756    -3.6177 C.3     
  22 F22            9.6318    10.5242    -2.4581 F       
  23 F23           11.1268     9.7244    -0.9270 F       
  24 F24           11.3895     9.2356    -3.1431 F       
  25 C25           -1.2926    -0.7753     0.0108 C.3     
  26 C26           -1.6552    -1.2671    -1.4112 C.3     
  27 C27           -2.2402    -2.6408    -1.1435 C.2     
  28 N28           -1.9254    -2.9900     0.0431 N.2     
  29 O29           -1.1465    -2.0232     0.7194 O.3     
  30 H30           -0.9592     1.9054     0.0170 H       
  31 H31            1.2231    -1.7588    -0.0184 H       
  32 H32            3.3386    -0.4987    -0.0324 H       
  33 H33            1.1563     3.1654     0.0069 H       
  34 H34            3.5333     3.1300     0.4972 H       
  35 H35            4.4441     1.6008     0.4820 H       
  36 H36            5.7753     3.4440    -0.9647 H       
  37 H37            4.7497     3.5465    -3.6970 H       
  38 H38            8.5145     6.2790    -1.1483 H       
  39 H39            7.4933     7.0563    -5.2297 H       
  40 H40            6.0432     5.0391    -5.1728 H       
  41 H41            8.8753     8.3501    -1.1508 H       
  42 H42           10.2447     7.3461    -1.6844 H       
  43 H43            5.7736     1.2909    -3.5842 H       
  44 H44            6.7127     2.3663    -4.6472 H       
  45 H45            7.2945     2.0104    -3.0031 H       
  46 H46           -2.0988    -0.1765     0.4346 H       
  47 H47           -2.3968    -0.6131    -1.8697 H       
  48 H48           -0.7640    -1.3406    -2.0344 H       
  49 H49           -2.8247    -3.2245    -1.8393 H       
@<TRIPOS>BOND
   1    1    2 ar
   2    1    6 ar
   3    1   30 1
   4    2    3 ar
   5    2   25 1
   6    3    4 ar
   7    3   31 1
   8    4    5 ar
   9    4   32 1
  10    5    6 ar
  11    5    7 1
  12    6   33 1
  13    7    8 1
  14    7   34 1
  15    7   35 1
  16    8    9 am
  17    8   10 2
  18    9   11 1
  19    9   36 1
  20   11   12 1
  21   11   21 1
  22   11   37 1
  23   12   13 ar
  24   12   17 ar
  25   13   14 ar
  26   14   15 ar
  27   14   38 1
  28   15   16 ar
  29   15   18 1
  30   16   17 ar
  31   16   39 1
  32   17   40 1
  33   18   19 1
  34   19   20 1
  35   19   41 1
  36   19   42 1
  37   20   22 1
  38   20   23 1
  39   20   24 1
  40   21   43 1
  41   21   44 1
  42   21   45 1
  43   25   26 1
  44   25   29 1
  45   25   46 1
  46   26   27 1
  47   26   47 1
  48   26   48 1
  49   27   28 2
  50   27   49 1
  51   28   29 1

#	End of record

