#	Name: ASD03240052
#	Creating user name:	WinNT
#	Creation time:	15. 06. 2019 20:34

#	Modifying user name:	WinNT
#	Modification time:	15. 06. 2019 20:34

#	Program:	/corina/corina34_cracker 3.40 0067  02.08.2006

@<TRIPOS>MOLECULE
ASD03240052
  70   76    0    0    0
SMALL
NO_CHARGES


@<TRIPOS>ATOM
   1 C1             1.3503     1.9730     0.6635 C.ar    
   2 C2             1.2949     0.5788     0.7165 C.ar    
   3 C3             2.5789     2.5989     0.4325 C.ar    
   4 C4             3.7062     1.7981     0.2635 C.ar    
   5 C5             3.5651     0.4017     0.3314 C.ar    
   6 N6             2.3788    -0.1485     0.5531 N.ar    
   7 C7             4.7533    -0.4645     0.1539 C.ar    
   8 C8             5.0339     2.4095     0.0155 C.ar    
   9 C9             5.1848     3.3750    -0.9786 C.ar    
  10 C10            6.4230     3.9407    -1.2050 C.ar    
  11 C11            7.5132     3.5513    -0.4477 C.ar    
  12 C12            7.3695     2.5934     0.5398 C.ar    
  13 C13            6.1348     2.0253     0.7794 C.ar    
  14 C14            4.8666    -1.6537     0.8739 C.ar    
  15 C15            5.9760    -2.4565     0.7043 C.ar    
  16 C16            6.9748    -2.0837    -0.1774 C.ar    
  17 C17            6.8683    -0.9052    -0.8940 C.ar    
  18 C18            5.7607    -0.0972    -0.7381 C.ar    
  19 C19            8.1840    -2.9649    -0.3575 C.3     
  20 N20            7.9304    -3.9300    -1.4355 N.3     
  21 C21            9.1595    -4.6456    -1.8012 C.3     
  22 C22            8.8916    -5.5329    -3.0190 C.3     
  23 C23            7.7791    -6.5299    -2.6831 C.3     
  24 C24            6.5254    -5.7599    -2.2590 C.3     
  25 C25            6.8618    -4.8660    -1.0633 C.3     
  26 C26            0.1223     2.7782     0.8435 C.2     
  27 N27            7.4780    -7.3435    -3.8637 N.pl3   
  28 C28            7.0440    -6.8784    -5.0889 C.ar    
  29 C29            6.8898    -8.0137    -5.9022 C.ar    
  30 N30            7.2305    -9.0899    -5.1476 N.2     
  31 C31            7.5799    -8.6968    -3.9576 C.2     
  32 C32            6.7641    -5.6187    -5.6010 C.ar    
  33 C33            6.3366    -5.4914    -6.9053 C.ar    
  34 C34            6.1841    -6.6131    -7.7081 C.ar    
  35 C35            6.4554    -7.8603    -7.2215 C.ar    
  36 C36            8.0224    -9.6087    -2.8424 C.3     
  37 N37            0.0365     4.0918     0.8161 N.2     
  38 N38           -1.1767     4.4670     1.0068 N.2     
  39 N39           -1.9437     3.4436     1.1674 N.2     
  40 N40           -1.1290     2.3027     1.0620 N.pl3   
  41 H41            0.3483     0.0904     0.8946 H       
  42 H42            2.6522     3.6754     0.3860 H       
  43 H43            4.3344     3.6795    -1.5706 H       
  44 H44            6.5412     4.6886    -1.9751 H       
  45 H45            8.4804     3.9967    -0.6284 H       
  46 H46            8.2243     2.2927     1.1275 H       
  47 H47            6.0238     1.2774     1.5506 H       
  48 H48            4.0879    -1.9454     1.5630 H       
  49 H49            6.0649    -3.3776     1.2612 H       
  50 H50            7.6515    -0.6193    -1.5806 H       
  51 H51            5.6785     0.8224    -1.2983 H       
  52 H52            9.0463    -2.3501    -0.6157 H       
  53 H53            8.3845    -3.5008     0.5702 H       
  54 H54            9.9413    -3.9251    -2.0417 H       
  55 H55            9.4817    -5.2651    -0.9643 H       
  56 H56            8.5826    -4.9126    -3.8603 H       
  57 H57            9.8000    -6.0757    -3.2806 H       
  58 H58            8.1031    -7.1761    -1.8673 H       
  59 H59            6.1792    -5.1432    -3.0884 H       
  60 H60            5.7431    -6.4649    -1.9776 H       
  61 H61            7.1948    -5.4845    -0.2298 H       
  62 H62            5.9748    -4.3056    -0.7678 H       
  63 H63            6.8804    -4.7426    -4.9802 H       
  64 H64            6.1185    -4.5121    -7.3051 H       
  65 H65            5.8477    -6.4987    -8.7280 H       
  66 H66            6.3338    -8.7264    -7.8551 H       
  67 H67            9.1108    -9.6661    -2.8302 H       
  68 H68            7.6687    -9.2153    -1.8894 H       
  69 H69            7.6077   -10.6042    -3.0009 H       
  70 H70           -1.4021     1.3749     1.1356 H       
@<TRIPOS>BOND
   1    1    2 ar
   2    1    3 ar
   3    1   26 1
   4    2    6 ar
   5    2   41 1
   6    3    4 ar
   7    3   42 1
   8    4    5 ar
   9    4    8 1
  10    5    6 ar
  11    5    7 1
  12    7   14 ar
  13    7   18 ar
  14    8    9 ar
  15    8   13 ar
  16    9   10 ar
  17    9   43 1
  18   10   11 ar
  19   10   44 1
  20   11   12 ar
  21   11   45 1
  22   12   13 ar
  23   12   46 1
  24   13   47 1
  25   14   15 ar
  26   14   48 1
  27   15   16 ar
  28   15   49 1
  29   16   17 ar
  30   16   19 1
  31   17   18 ar
  32   17   50 1
  33   18   51 1
  34   19   20 1
  35   19   52 1
  36   19   53 1
  37   20   21 1
  38   20   25 1
  39   21   22 1
  40   21   54 1
  41   21   55 1
  42   22   23 1
  43   22   56 1
  44   22   57 1
  45   23   24 1
  46   23   27 1
  47   23   58 1
  48   24   25 1
  49   24   59 1
  50   24   60 1
  51   25   61 1
  52   25   62 1
  53   26   37 2
  54   26   40 1
  55   27   28 1
  56   27   31 1
  57   28   29 ar
  58   28   32 ar
  59   29   30 1
  60   29   35 ar
  61   30   31 2
  62   31   36 1
  63   32   33 ar
  64   32   63 1
  65   33   34 ar
  66   33   64 1
  67   34   35 ar
  68   34   65 1
  69   35   66 1
  70   36   67 1
  71   36   68 1
  72   36   69 1
  73   37   38 1
  74   38   39 2
  75   39   40 1
  76   40   70 1

#	End of record

