#	Name: ASD03740126
#	Creating user name:	WinNT
#	Creation time:	15. 06. 2019 20:46

#	Modifying user name:	WinNT
#	Modification time:	15. 06. 2019 20:46

#	Program:	/corina/corina34_cracker 3.40 0067  02.08.2006

@<TRIPOS>MOLECULE
ASD03740126
  31   33    0    0    0
SMALL
NO_CHARGES


@<TRIPOS>ATOM
   1 C1            -0.0169     1.3926     0.0097 C.ar    
   2 C2             0.0021    -0.0041     0.0020 C.ar    
   3 C3            -1.1406    -0.7347     0.0090 C.ar    
   4 C4            -2.3891    -0.0763     0.0249 C.ar    
   5 C5            -2.4083     1.3949     0.0335 C.ar    
   6 C6            -1.1801     2.0901     0.0302 C.ar    
   7 N7            -3.6484    -0.4737     0.0343 N.2     
   8 N8            -4.4803     0.6518     0.0483 N.pl3   
   9 C9            -3.7393     1.7681     0.0479 C.2     
  10 C10           -5.9447     0.6147     0.0611 C.3     
  11 C11           -6.4367    -0.2063    -1.1029 C.ar    
  12 C12           -6.6313    -1.5670    -0.9555 C.ar    
  13 C13           -7.0825    -2.3204    -2.0227 C.ar    
  14 C14           -7.3393    -1.7127    -3.2388 C.ar    
  15 C15           -7.1443    -0.3509    -3.3857 C.ar    
  16 C16           -6.6985     0.4025    -2.3161 C.ar    
  17 Cl17          -7.9054    -2.6585    -4.5799 Cl      
  18 C18            1.2893     2.1442     0.0013 C.3     
  19 F19            2.3512     1.2336    -0.0138 F       
  20 F20            1.3537     2.9545    -1.1373 F       
  21 F21            1.3755     2.9423     1.1471 F       
  22 H22            0.9528    -0.5163    -0.0102 H       
  23 H23           -1.0956    -1.8138     0.0021 H       
  24 H24           -1.1666     3.1700     0.0366 H       
  25 H25           -4.1154     2.7805     0.0571 H       
  26 H26           -6.2887     0.1662     0.9932 H       
  27 H27           -6.3346     1.6294    -0.0194 H       
  28 H28           -6.4305    -2.0413    -0.0063 H       
  29 H29           -7.2342    -3.3835    -1.9075 H       
  30 H30           -7.3446     0.1241    -4.3348 H       
  31 H31           -6.5462     1.4656    -2.4307 H       
@<TRIPOS>BOND
   1    1    2 ar
   2    1   18 1
   3    1    6 ar
   4    2    3 ar
   5    2   22 1
   6    3    4 ar
   7    3   23 1
   8    4    5 ar
   9    4    7 2
  10    5    6 ar
  11    5    9 2
  12    6   24 1
  13    7    8 1
  14    8    9 1
  15    8   10 1
  16    9   25 1
  17   10   11 1
  18   10   26 1
  19   10   27 1
  20   11   12 ar
  21   11   16 ar
  22   12   13 ar
  23   12   28 1
  24   13   14 ar
  25   13   29 1
  26   14   15 ar
  27   14   17 1
  28   15   16 ar
  29   15   30 1
  30   16   31 1
  31   18   19 1
  32   18   20 1
  33   18   21 1

#	End of record

