#	Name: ASD01917631
#	Creating user name:	WinNT
#	Creation time:	15. 06. 2019 20:09

#	Modifying user name:	WinNT
#	Modification time:	15. 06. 2019 20:09

#	Program:	/corina/corina34_cracker 3.40 0067  02.08.2006

@<TRIPOS>MOLECULE
ASD01917631
  64   68    0    0    0
SMALL
NO_CHARGES


@<TRIPOS>ATOM
   1 C1            -0.0166     1.3755     0.0096 C.ar    
   2 C2             0.0021    -0.0041     0.0020 C.ar    
   3 C3            -1.1968    -0.7150     0.0096 C.ar    
   4 C4            -2.4089    -0.0278     0.0249 C.ar    
   5 C5            -1.1824    -2.1985     0.0011 C.2     
   6 N6            -0.0847    -2.9817    -0.0136 N.2     
   7 C7            -2.2727    -3.0090     0.0125 C.2     
   8 N8            -1.8065    -4.2961    -0.0016 N.pl3   
   9 C9            -0.4491    -4.2335    -0.0174 C.2     
  10 C10           -2.5853    -5.4629     0.0039 C.ar    
  11 C11           -3.5997    -5.6168     0.9389 C.ar    
  12 C12           -4.3654    -6.7663     0.9429 C.ar    
  13 C13           -3.1138    -7.6105    -0.9222 C.ar    
  14 C14           -2.3461    -6.4624    -0.9292 C.ar    
  15 C15            0.4828    -5.4177    -0.0362 C.3     
  16 C16            0.7765    -5.8032    -1.4631 C.2     
  17 N17            1.5930    -6.8428    -1.7258 N.am    
  18 O18            0.2782    -5.1780    -2.3750 O.2     
  19 C19            1.8929    -7.2359    -3.1110 C.3     
  20 C20            2.2126    -7.6106    -0.6350 C.3     
  21 C21            3.7200    -7.6974    -0.8960 C.3     
  22 N22            3.9503    -8.2359    -2.2433 N.3     
  23 C23            3.4136    -7.3382    -3.2696 C.3     
  24 C24            5.3017    -8.4822    -2.4571 C.ar    
  25 N25            6.1756    -8.2248    -1.4952 N.ar    
  26 C26            5.7218    -9.0012    -3.6751 C.ar    
  27 C27            7.0752    -9.2426    -3.8742 C.ar    
  28 C28            7.9605    -8.9519    -2.8362 C.ar    
  29 C29            7.4682    -8.4435    -1.6537 C.ar    
  30 C30           -4.1213    -7.7650     0.0152 C.ar    
  31 F31           -4.8707    -8.8891     0.0211 F       
  32 Cl32          -1.2404     3.7896     0.0394 Cl      
  33 C33           -2.4169     1.3523     0.0324 C.ar    
  34 C34           -1.2236     2.0537     0.0305 C.ar    
  35 C35            1.2788     2.1455     0.0014 C.3     
  36 O36            7.5253    -9.7496    -5.0502 O.3     
  37 C37            8.9330    -9.9660    -5.1670 C.3     
  38 H38            0.9441    -0.5322    -0.0102 H       
  39 H39           -3.3404    -0.5742     0.0305 H       
  40 H40           -3.3069    -2.6982     0.0295 H       
  41 H41           -3.7898    -4.8384     1.6630 H       
  42 H42           -5.1547    -6.8864     1.6702 H       
  43 H43           -2.9283    -8.3882    -1.6483 H       
  44 H44           -1.5607    -6.3421    -1.6607 H       
  45 H45            1.4129    -5.1561     0.4683 H       
  46 H46            0.0142    -6.2570     0.4779 H       
  47 H47            1.4366    -8.2025    -3.3243 H       
  48 H48            1.5029    -6.4843    -3.7975 H       
  49 H49            2.0339    -7.1067     0.3149 H       
  50 H50            1.7876    -8.6139    -0.6061 H       
  51 H51            4.1599    -6.7029    -0.8217 H       
  52 H52            4.1797    -8.3549    -0.1581 H       
  53 H53            3.6462    -7.7352    -4.2577 H       
  54 H54            3.8615    -6.3506    -3.1593 H       
  55 H55            5.0066    -9.2142    -4.4559 H       
  56 H56            9.0194    -9.1271    -2.9564 H       
  57 H57            8.1496    -8.2164    -0.8471 H       
  58 H58           -3.3558     1.8859     0.0442 H       
  59 H59            1.5813     2.3366    -1.0282 H       
  60 H60            1.1414     3.0934     0.5216 H       
  61 H61            2.0507     1.5633     0.5047 H       
  62 H62            9.4581    -9.0199    -5.0358 H       
  63 H63            9.2570   -10.6707    -4.4012 H       
  64 H64            9.1575   -10.3725    -6.1532 H       
@<TRIPOS>BOND
   1    1    2 ar
   2    1   35 1
   3    1   34 ar
   4    2    3 ar
   5    2   38 1
   6    3    4 ar
   7    3    5 1
   8    4   33 ar
   9    4   39 1
  10    5    6 1
  11    5    7 2
  12    6    9 2
  13    7    8 1
  14    7   40 1
  15    8    9 1
  16    8   10 1
  17    9   15 1
  18   10   11 ar
  19   10   14 ar
  20   11   12 ar
  21   11   41 1
  22   12   30 ar
  23   12   42 1
  24   13   14 ar
  25   13   30 ar
  26   13   43 1
  27   14   44 1
  28   15   16 1
  29   15   45 1
  30   15   46 1
  31   16   17 am
  32   16   18 2
  33   17   19 1
  34   17   20 1
  35   19   23 1
  36   19   47 1
  37   19   48 1
  38   20   21 1
  39   20   49 1
  40   20   50 1
  41   21   22 1
  42   21   51 1
  43   21   52 1
  44   22   23 1
  45   22   24 1
  46   23   53 1
  47   23   54 1
  48   24   25 ar
  49   24   26 ar
  50   25   29 ar
  51   26   27 ar
  52   26   55 1
  53   27   28 ar
  54   27   36 1
  55   28   29 ar
  56   28   56 1
  57   29   57 1
  58   30   31 1
  59   32   34 1
  60   33   34 ar
  61   33   58 1
  62   35   59 1
  63   35   60 1
  64   35   61 1
  65   36   37 1
  66   37   62 1
  67   37   63 1
  68   37   64 1

#	End of record

