#	Name: ASD03330317
#	Creating user name:	WinNT
#	Creation time:	15. 06. 2019 20:37

#	Modifying user name:	WinNT
#	Modification time:	15. 06. 2019 20:37

#	Program:	/corina/corina34_cracker 3.40 0067  02.08.2006

@<TRIPOS>MOLECULE
ASD03330317
  56   60    0    0    0
SMALL
NO_CHARGES


@<TRIPOS>ATOM
   1 C1            -0.0146     1.4894    -0.0083 C.3     
   2 N2            -0.0238     0.0188    -0.0320 N.am    
   3 C3             0.5604    -0.6588    -1.2052 C.3     
   4 C4             1.8417     0.0655    -1.5383 C.2     
   5 N5             2.2115     1.2492    -0.9880 N.pl3   
   6 C6             1.4352     1.9864     0.0118 C.3     
   7 C7             2.8191    -0.3035    -2.4049 C.2     
   8 N8             3.7705     0.6570    -2.3816 N.2     
   9 C9             3.4113     1.5938    -1.5342 C.2     
  10 C10            4.1805     2.8192    -1.2249 C.ar    
  11 C11            5.2247     3.2199    -2.0588 C.ar    
  12 C12            2.8399    -1.5294    -3.2224 C.2     
  13 O13            1.9774    -2.3740    -3.0741 O.2     
  14 C14            3.9310    -2.9826    -4.8721 C.3     
  15 N15            3.8148    -1.7147    -4.1344 N.am    
  16 S16           -0.6700    -0.8503     1.2208 S.o2    
  17 C17            5.9380     4.3639    -1.7652 C.ar    
  18 C18            5.6195     5.1131    -0.6466 C.ar    
  19 C19            4.5852     4.7211     0.1842 C.ar    
  20 C20            3.8609     3.5820    -0.1014 C.ar    
  21 O21           -0.6247    -0.0042     2.3616 O.2     
  22 C22           -2.3753    -1.1024     0.8558 C.ar    
  23 O23           -0.0570    -2.1315     1.1785 O.2     
  24 C24           -2.7717    -2.2204     0.1459 C.ar    
  25 C25           -4.1088    -2.4190    -0.1414 C.ar    
  26 C26           -4.6540    -0.3813     0.9983 C.ar    
  27 C27           -3.3163    -0.1848     1.2844 C.ar    
  28 C28           -5.0516    -1.4978     0.2825 C.ar    
  29 F29           -6.3591    -1.6908     0.0022 F       
  30 C30            5.3791    -3.4738    -4.7642 C.3     
  31 O31            6.2633    -2.4238    -5.1634 O.3     
  32 C32            6.2002    -1.2594    -4.3363 C.3     
  33 C33            4.7942    -0.6548    -4.4223 C.3     
  34 H34           -0.5177     1.8708    -0.8968 H       
  35 H35           -0.5326     1.8422     0.8835 H       
  36 H36            0.7733    -1.7005    -0.9654 H       
  37 H37           -0.1284    -0.6032    -2.0482 H       
  38 H38            1.4584     3.0509    -0.2216 H       
  39 H39            1.8634     1.8202     1.0002 H       
  40 H40            5.4745     2.6357    -2.9322 H       
  41 H41            3.2589    -3.7229    -4.4379 H       
  42 H42            3.6746    -2.8229    -5.9194 H       
  43 H43            6.7468     4.6750    -2.4098 H       
  44 H44            6.1810     6.0077    -0.4209 H       
  45 H45            4.3414     5.3102     1.0560 H       
  46 H46            3.0536     3.2769     0.5480 H       
  47 H47           -2.0361    -2.9388    -0.1847 H       
  48 H48           -4.4182    -3.2921    -0.6966 H       
  49 H49           -5.3890     0.3357     1.3332 H       
  50 H50           -3.0059     0.6860     1.8427 H       
  51 H51            5.5917    -3.7566    -3.7332 H       
  52 H52            5.5205    -4.3363    -5.4156 H       
  53 H53            6.4159    -1.5342    -3.3038 H       
  54 H54            6.9324    -0.5287    -4.6799 H       
  55 H55            4.6247    -0.2607    -5.4243 H       
  56 H56            4.6937     0.1465    -3.6902 H       
@<TRIPOS>BOND
   1    1    2 1
   2    1    6 1
   3    1   34 1
   4    1   35 1
   5    2    3 1
   6    2   16 am
   7    3    4 1
   8    3   36 1
   9    3   37 1
  10    4    5 1
  11    4    7 2
  12    5    6 1
  13    5    9 1
  14    6   38 1
  15    6   39 1
  16    7    8 1
  17    7   12 1
  18    8    9 2
  19    9   10 1
  20   10   11 ar
  21   10   20 ar
  22   11   17 ar
  23   11   40 1
  24   12   13 2
  25   12   15 am
  26   14   30 1
  27   14   15 1
  28   14   41 1
  29   14   42 1
  30   15   33 1
  31   16   21 2
  32   16   22 1
  33   16   23 2
  34   17   18 ar
  35   17   43 1
  36   18   19 ar
  37   18   44 1
  38   19   20 ar
  39   19   45 1
  40   20   46 1
  41   22   24 ar
  42   22   27 ar
  43   24   25 ar
  44   24   47 1
  45   25   28 ar
  46   25   48 1
  47   26   27 ar
  48   26   28 ar
  49   26   49 1
  50   27   50 1
  51   28   29 1
  52   30   31 1
  53   30   51 1
  54   30   52 1
  55   31   32 1
  56   32   33 1
  57   32   53 1
  58   32   54 1
  59   33   55 1
  60   33   56 1

#	End of record

