#	Name: ASD03490066
#	Creating user name:	WinNT
#	Creation time:	15. 06. 2019 20:42

#	Modifying user name:	WinNT
#	Modification time:	15. 06. 2019 20:42

#	Program:	/corina/corina34_cracker 3.40 0067  02.08.2006

@<TRIPOS>MOLECULE
ASD03490066
  63   63    0    0    0
SMALL
NO_CHARGES


@<TRIPOS>ATOM
   1 O1            -0.0173     1.4248     0.0099 O.3     
   2 C2             0.0021    -0.0041     0.0020 C.3     
   3 C3            -1.4333    -0.5336     0.0129 C.3     
   4 C4            -1.4133    -2.0590     0.1302 C.3     
   5 O5            -2.0889    -0.1578    -1.2000 O.3     
   6 C6            -2.8486    -2.5886     0.1411 C.3     
   7 O7            -0.7577    -2.4349     1.3431 O.3     
   8 O8            -3.5856    -1.9467     1.1837 O.3     
   9 C9            -2.8334    -4.0999     0.3849 C.3     
  10 C10           -4.2752    -4.6126     0.4544 C.3     
  11 C11           -5.0228    -3.8537     1.5550 C.3     
  12 C12           -4.9535    -2.3519     1.2660 C.3     
  13 O13           -5.6082    -2.0744     0.0265 O.3     
  14 N14           -2.1294    -4.7659    -0.7137 N.am    
  15 C15           -1.5493    -5.9658    -0.5131 C.2     
  16 C16           -0.8250    -6.6510    -1.6433 C.3     
  17 O17           -1.6101    -6.4942     0.5768 O.2     
  18 O18           -4.2718    -6.0097     0.7547 O.3     
  19 C19            1.1764     2.0536     0.0019 C.2     
  20 C20            1.2348     3.5595     0.0094 C.3     
  21 N21            2.2680     1.3656    -0.0123 N.2     
  22 N22            0.0052     4.0942     0.6094 N.3     
  23 C23            1.3665     4.0719    -1.4262 C.3     
  24 C24            1.4259     5.6007    -1.4186 C.3     
  25 C25            2.6472     3.5149    -2.0511 C.3     
  26 C26           -5.6360    -1.5945     2.3758 C.2     
  27 O27           -5.0416    -0.7257     2.9688 O.2     
  28 O28           -6.9043    -1.8852     2.7054 O.3     
  29 C29           -8.9358    -1.5852     4.0145 C.3     
  30 C30           -7.4981    -1.1154     3.7840 C.3     
  31 H31            0.5123    -0.3556    -0.8948 H       
  32 H32            0.5293    -0.3651     0.8851 H       
  33 H33           -1.9701    -0.1109     0.8621 H       
  34 H34           -0.8764    -2.4817    -0.7190 H       
  35 H35           -1.6646    -0.4999    -1.9987 H       
  36 H36           -3.3204    -2.3799    -0.8191 H       
  37 H37           -1.1820    -2.0928     2.1418 H       
  38 H38           -2.3257    -4.3120     1.3258 H       
  39 H39           -4.7682    -4.4453    -0.5033 H       
  40 H40           -6.0647    -4.1732     1.5745 H       
  41 H41           -4.5593    -4.0608     2.5196 H       
  42 H42           -5.6028    -1.1395    -0.2205 H       
  43 H43           -2.0807    -4.3434    -1.5855 H       
  44 H44           -0.8761    -6.0295    -2.5373 H       
  45 H45            0.2180    -6.8043    -1.3664 H       
  46 H46           -1.2932    -7.6147    -1.8435 H       
  47 H47           -5.1539    -6.4014     0.8139 H       
  48 H48            2.0957     3.8867     0.5924 H       
  49 H49            3.1262     1.8177    -0.0180 H       
  50 H50           -0.8078     3.8046     0.0866 H       
  51 H51           -0.0722     3.8227     1.5781 H       
  52 H52            0.5057     3.7446    -2.0092 H       
  53 H53            2.2867     5.9280    -0.8356 H       
  54 H54            1.5197     5.9658    -2.4413 H       
  55 H55            0.5135     5.9975    -0.9734 H       
  56 H56            2.6049     2.4258    -2.0565 H       
  57 H57            2.7410     3.8800    -3.0738 H       
  58 H58            3.5081     3.8422    -1.4681 H       
  59 H59           -8.9344    -2.6422     4.2805 H       
  60 H60           -9.3815    -1.0073     4.8241 H       
  61 H61           -9.5158    -1.4408     3.1029 H       
  62 H62           -6.9181    -1.2598     4.6955 H       
  63 H63           -7.4995    -0.0584     3.5179 H       
@<TRIPOS>BOND
   1    1    2 1
   2    1   19 1
   3    2    3 1
   4    2   31 1
   5    2   32 1
   6    3    4 1
   7    3    5 1
   8    3   33 1
   9    4    7 1
  10    4    6 1
  11    4   34 1
  12    5   35 1
  13    6    8 1
  14    6    9 1
  15    6   36 1
  16    7   37 1
  17    8   12 1
  18    9   10 1
  19    9   14 1
  20    9   38 1
  21   10   11 1
  22   10   18 1
  23   10   39 1
  24   11   12 1
  25   11   40 1
  26   11   41 1
  27   12   13 1
  28   12   26 1
  29   13   42 1
  30   14   15 am
  31   14   43 1
  32   15   16 1
  33   15   17 2
  34   16   44 1
  35   16   45 1
  36   16   46 1
  37   18   47 1
  38   19   20 1
  39   19   21 2
  40   20   22 1
  41   20   23 1
  42   20   48 1
  43   21   49 1
  44   22   50 1
  45   22   51 1
  46   23   24 1
  47   23   25 1
  48   23   52 1
  49   24   53 1
  50   24   54 1
  51   24   55 1
  52   25   56 1
  53   25   57 1
  54   25   58 1
  55   26   27 2
  56   26   28 1
  57   28   30 1
  58   29   30 1
  59   29   59 1
  60   29   60 1
  61   29   61 1
  62   30   62 1
  63   30   63 1

#	End of record

