#	Name: ASD01100030
#	Creating user name:	WinNT
#	Creation time:	15. 06. 2019 18:58

#	Modifying user name:	WinNT
#	Modification time:	15. 06. 2019 18:58

#	Program:	/corina/corina34_cracker 3.40 0067  02.08.2006

@<TRIPOS>MOLECULE
ASD01100030
  35   36    0    0    0
SMALL
NO_CHARGES


@<TRIPOS>ATOM
   1 C1             0.1622     1.2947    -0.9228 C.ar    
   2 C2             0.2402    -0.0848    -0.9927 C.ar    
   3 C3             1.4412    -0.7230    -0.7387 C.ar    
   4 C4             2.5623     0.0180    -0.4153 C.ar    
   5 C5             2.4837     1.3964    -0.3456 C.ar    
   6 C6             1.2839     2.0346    -0.5993 C.ar    
   7 C7             3.7063     2.2036     0.0075 C.3     
   8 C8             3.4370     3.0060     1.2821 C.3     
   9 C9             3.2209     2.0455     2.4533 C.3     
  10 C10            4.6352     3.9100     1.5784 C.3     
  11 Cl11          -1.1684    -1.0148    -1.3984 Cl      
  12 C12            4.0282     3.1480    -1.1219 C.2     
  13 N13            5.1804     3.8471    -1.1081 N.am    
  14 O14            3.2504     3.2788    -2.0433 O.2     
  15 C15            5.4402     4.7775    -2.1065 C.2     
  16 N16            6.5191     5.5165    -2.2038 N.2     
  17 C17            6.4251     6.2977    -3.2918 C.2     
  18 C18            5.2512     6.0411    -3.8958 C.2     
  19 N19            4.6215     5.0720    -3.1517 N.pl3   
  20 H20           -0.7740     1.7937    -1.1253 H       
  21 H21            1.5027    -1.7998    -0.7927 H       
  22 H22            3.4998    -0.4801    -0.2167 H       
  23 H23            1.2231     3.1115    -0.5447 H       
  24 H24            4.5496     1.5328     0.1718 H       
  25 H25            2.5454     3.6178     1.1447 H       
  26 H26            4.1124     1.4337     2.5907 H       
  27 H27            3.0290     2.6171     3.3613 H       
  28 H28            2.3672     1.4014     2.2422 H       
  29 H29            4.8522     4.5238     0.7042 H       
  30 H30            4.4033     4.5545     2.4263 H       
  31 H31            5.5039     3.2958     1.8158 H       
  32 H32            5.8281     3.7006    -0.4012 H       
  33 H33            7.1651     7.0105    -3.6246 H       
  34 H34            4.8764     6.5053    -4.7960 H       
  35 H35            3.7546     4.6770    -3.3344 H       
@<TRIPOS>BOND
   1    1    2 ar
   2    1    6 ar
   3    1   20 1
   4    2    3 ar
   5    2   11 1
   6    3    4 ar
   7    3   21 1
   8    4    5 ar
   9    4   22 1
  10    5    6 ar
  11    5    7 1
  12    6   23 1
  13    7    8 1
  14    7   12 1
  15    7   24 1
  16    8    9 1
  17    8   10 1
  18    8   25 1
  19    9   26 1
  20    9   27 1
  21    9   28 1
  22   10   29 1
  23   10   30 1
  24   10   31 1
  25   12   13 am
  26   12   14 2
  27   13   15 1
  28   13   32 1
  29   15   16 2
  30   15   19 1
  31   16   17 1
  32   17   18 2
  33   17   33 1
  34   18   19 1
  35   18   34 1
  36   19   35 1

#	End of record

