#	Name: ASD02448089
#	Creating user name:	WinNT
#	Creation time:	15. 06. 2019 20:21

#	Modifying user name:	WinNT
#	Modification time:	15. 06. 2019 20:21

#	Program:	/corina/corina34_cracker 3.40 0067  02.08.2006

@<TRIPOS>MOLECULE
ASD02448089
  90   97    0    0    0
SMALL
NO_CHARGES


@<TRIPOS>ATOM
   1 C1            -0.0394    -6.6049     3.0540 C.ar    
   2 C2             0.4503    -5.4738     2.4302 C.ar    
   3 C3             0.3503    -5.3407     1.0512 C.ar    
   4 C4            -0.2418    -6.3447     0.3000 C.ar    
   5 C5            -0.7331    -7.4804     0.9293 C.ar    
   6 C6            -0.6301    -7.6075     2.3090 C.ar    
   7 N7            -1.3307    -8.4938     0.1764 N.am    
   8 C8            -1.4508    -9.9180     0.5144 C.3     
   9 C9            -2.1624   -10.6737    -0.5611 C.2     
  10 N10           -2.5491    -9.9308    -1.6077 N.am    
  11 S11           -2.0779    -8.3624    -1.3095 S.o2    
  12 O12           -2.3732   -11.8661    -0.4923 O.2     
  13 O13           -3.2609    -7.5969    -1.1257 O.2     
  14 O14           -1.0649    -8.0423    -2.2532 O.2     
  15 N15            0.8473    -4.1920     0.4193 N.pl3   
  16 C16            1.7709    -4.1564    -0.5911 C.2     
  17 C17            0.4975    -2.9073     0.6917 C.2     
  18 N18            1.1659    -2.1123    -0.0964 N.2     
  19 C19            1.9608    -2.8473    -0.9005 C.2     
  20 C20            2.8797    -2.3197    -1.9389 C.ar    
  21 C21            2.9773    -0.9450    -2.1541 C.ar    
  22 C22            3.6525    -3.1953    -2.6986 C.ar    
  23 C23            4.5064    -2.6997    -3.6632 C.ar    
  24 C24            4.5961    -1.3350    -3.8770 C.ar    
  25 C25            3.8346    -0.4596    -3.1217 C.ar    
  26 C26           -0.4999    -2.4726     1.7343 C.3     
  27 C27           -1.8495    -2.2842     1.0908 C.ar    
  28 C28           -2.6933    -3.3682     0.9293 C.ar    
  29 C29           -2.2421    -1.0268     0.6688 C.ar    
  30 C30           -3.4771    -0.8485     0.0788 C.ar    
  31 C31           -4.3287    -1.9380    -0.0915 C.ar    
  32 C32           -3.9304    -3.2014     0.3405 C.ar    
  33 C33           -5.6577    -1.7524    -0.7252 C.ar    
  34 C34           -6.5082    -2.8417    -0.8950 C.ar    
  35 C35           -6.0600    -0.4865    -1.1467 C.ar    
  36 C36           -7.2969    -0.3152    -1.7363 C.ar    
  37 C37           -8.1397    -1.3961    -1.9101 C.ar    
  38 C38           -7.7489    -2.6616    -1.4880 C.ar    
  39 Cl39           2.0224     0.1534    -1.2079 Cl      
  40 Cl40           5.6721    -0.7188    -5.0919 Cl      
  41 N41           -8.6034    -3.7523    -1.6658 N.3     
  42 C42           -8.4943    -4.6980    -0.5398 C.3     
  43 C43           -9.9079    -4.8640     0.0564 C.3     
  44 C44          -10.8333    -4.4460    -1.1166 C.3     
  45 C45          -10.0101    -3.3110    -1.7753 C.3     
  46 C46          -10.1605    -6.3202     0.4522 C.3     
  47 C47           -9.1295    -6.7508     1.4974 C.3     
  48 C48           -9.3821    -8.2069     1.8933 C.3     
  49 C49          -10.7889    -8.3393     2.4800 C.3     
  50 C50          -11.8200    -7.9087     1.4347 C.3     
  51 C51          -11.5674    -6.4525     1.0389 C.3     
  52 H52            0.0436    -6.7078     4.1259 H       
  53 H53            0.9111    -4.6918     3.0155 H       
  54 H54           -0.3209    -6.2432    -0.7723 H       
  55 H55           -1.0120    -8.4906     2.7995 H       
  56 H56           -0.4541   -10.3388     0.6468 H       
  57 H57           -2.0052   -10.0179     1.4476 H       
  58 H58           -3.0201   -10.2486    -2.3939 H       
  59 H59            2.2550    -5.0046    -1.0522 H       
  60 H60            3.5839    -4.2603    -2.5327 H       
  61 H61            5.1059    -3.3780    -4.2521 H       
  62 H62            3.9082     0.6043    -3.2923 H       
  63 H63           -0.5705    -3.2353     2.5099 H       
  64 H64           -0.1746    -1.5319     2.1785 H       
  65 H65           -2.3834    -4.3471     1.2642 H       
  66 H66           -1.5813    -0.1829     0.8016 H       
  67 H67           -3.7828     0.1338    -0.2500 H       
  68 H68           -4.5865    -4.0493     0.2107 H       
  69 H69           -6.2025    -3.8240    -0.5663 H       
  70 H70           -5.4043     0.3610    -1.0118 H       
  71 H71           -7.6066     0.6668    -2.0621 H       
  72 H72           -9.1062    -1.2568    -2.3715 H       
  73 H73           -8.1275    -5.6600    -0.8977 H       
  74 H74           -7.8178    -4.2985     0.2157 H       
  75 H75          -10.0460    -4.2017     0.9110 H       
  76 H76          -10.9823    -5.2734    -1.8103 H       
  77 H77          -11.7879    -4.0719    -0.7466 H       
  78 H78          -10.1570    -2.3744    -1.2373 H       
  79 H79          -10.2916    -3.1965    -2.8221 H       
  80 H80          -10.0727    -6.9565    -0.4284 H       
  81 H81           -8.1272    -6.6565     1.0795 H       
  82 H82           -9.2173    -6.1144     2.3780 H       
  83 H83           -9.2943    -8.8433     1.0127 H       
  84 H84           -8.6476    -8.5137     2.6379 H       
  85 H85          -10.9689    -9.3767     2.7619 H       
  86 H86          -10.8767    -7.7029     3.3605 H       
  87 H87          -11.7322    -8.5450     0.5541 H       
  88 H88          -12.8222    -8.0030     1.8527 H       
  89 H89          -11.6551    -5.8162     1.9195 H       
  90 H90          -12.3019    -6.1458     0.2943 H       
@<TRIPOS>BOND
   1    1    2 ar
   2    1    6 ar
   3    1   52 1
   4    2    3 ar
   5    2   53 1
   6    3    4 ar
   7    3   15 1
   8    4    5 ar
   9    4   54 1
  10    5    6 ar
  11    5    7 1
  12    6   55 1
  13    7    8 1
  14    7   11 am
  15    8    9 1
  16    8   56 1
  17    8   57 1
  18    9   10 am
  19    9   12 2
  20   10   11 am
  21   10   58 1
  22   11   13 2
  23   11   14 2
  24   15   16 1
  25   15   17 1
  26   16   19 2
  27   16   59 1
  28   17   18 2
  29   17   26 1
  30   18   19 1
  31   19   20 1
  32   20   21 ar
  33   20   22 ar
  34   21   39 1
  35   21   25 ar
  36   22   23 ar
  37   22   60 1
  38   23   24 ar
  39   23   61 1
  40   24   25 ar
  41   24   40 1
  42   25   62 1
  43   26   27 1
  44   26   63 1
  45   26   64 1
  46   27   28 ar
  47   27   29 ar
  48   28   32 ar
  49   28   65 1
  50   29   30 ar
  51   29   66 1
  52   30   31 ar
  53   30   67 1
  54   31   32 ar
  55   31   33 1
  56   32   68 1
  57   33   34 ar
  58   33   35 ar
  59   34   38 ar
  60   34   69 1
  61   35   36 ar
  62   35   70 1
  63   36   37 ar
  64   36   71 1
  65   37   38 ar
  66   37   72 1
  67   38   41 1
  68   41   42 1
  69   41   45 1
  70   42   43 1
  71   42   73 1
  72   42   74 1
  73   43   44 1
  74   43   46 1
  75   43   75 1
  76   44   45 1
  77   44   76 1
  78   44   77 1
  79   45   78 1
  80   45   79 1
  81   46   47 1
  82   46   51 1
  83   46   80 1
  84   47   48 1
  85   47   81 1
  86   47   82 1
  87   48   49 1
  88   48   83 1
  89   48   84 1
  90   49   50 1
  91   49   85 1
  92   49   86 1
  93   50   51 1
  94   50   87 1
  95   50   88 1
  96   51   89 1
  97   51   90 1

#	End of record

