#	Name: ASD02448185
#	Creating user name:	WinNT
#	Creation time:	15. 06. 2019 20:22

#	Modifying user name:	WinNT
#	Modification time:	15. 06. 2019 20:22

#	Program:	/corina/corina34_cracker 3.40 0067  02.08.2006

@<TRIPOS>MOLECULE
ASD02448185
  80   85    0    0    0
SMALL
NO_CHARGES


@<TRIPOS>ATOM
   1 C1             3.5387    -7.4347    -1.5400 C.ar    
   2 C2             2.9872    -6.4050    -0.8042 C.ar    
   3 C3             2.3303    -5.3655    -1.4487 C.ar    
   4 C4             2.2273    -5.3613    -2.8331 C.ar    
   5 C5             2.7785    -6.3906    -3.5696 C.ar    
   6 C6             3.4362    -7.4306    -2.9252 C.ar    
   7 N7             3.9950    -8.4731    -3.6708 N.am    
   8 C8             5.1089    -9.3542    -3.2966 C.3     
   9 C9             5.4033   -10.3461    -4.3753 C.2     
  10 N10            4.6166   -10.2502    -5.4563 N.am    
  11 S11            3.5444    -9.0058    -5.1863 S.o2    
  12 O12            6.2855   -11.1729    -4.2800 O.2     
  13 O13            2.2519    -9.5842    -5.0682 O.2     
  14 O14            3.8681    -7.9676    -6.1010 O.2     
  15 N15            1.7698    -4.3188    -0.7002 N.pl3   
  16 C16            0.8552    -4.4432     0.3107 C.2     
  17 C17            2.0386    -2.9944    -0.8406 C.2     
  18 N18            1.3311    -2.3262     0.0272 N.2     
  19 C19            0.5895    -3.1865     0.7539 C.2     
  20 C20           -0.3497    -2.8251     1.8440 C.ar    
  21 C21           -0.5279    -1.4882     2.1998 C.ar    
  22 C22           -1.0611    -3.8194     2.5121 C.ar    
  23 C23           -1.9338    -3.4782     3.5256 C.ar    
  24 C24           -2.1032    -2.1507     3.8792 C.ar    
  25 C25           -1.4034    -1.1577     3.2152 C.ar    
  26 C26            4.3370    -2.1821    -1.1780 C.ar    
  27 C27            5.2545    -3.2162    -1.1310 C.ar    
  28 C28            4.6459    -0.9511    -0.6279 C.ar    
  29 C29            5.8728    -0.7483    -0.0292 C.ar    
  30 C30            6.8008    -1.7864     0.0209 C.ar    
  31 C31            6.4840    -3.0247    -0.5339 C.ar    
  32 C32            8.1217    -1.5741     0.6629 C.ar    
  33 Cl33          -3.2028    -1.7289     5.1545 Cl      
  34 Cl34           0.3497    -0.2424     1.3681 Cl      
  35 C35            2.9983    -2.3956    -1.8363 C.3     
  36 C36            9.0497    -2.6122     0.7130 C.ar    
  37 C37           10.2770    -2.4091     1.3109 C.ar    
  38 C38           10.5864    -1.1777     1.8598 C.ar    
  39 C39            9.6689    -0.1436     1.8128 C.ar    
  40 C40            8.4407    -0.3341     1.2127 C.ar    
  41 C41           11.9279    -0.9620     2.5117 C.3     
  42 C42           12.9281    -0.4625     1.4673 C.3     
  43 C43           14.2900    -0.2435     2.1291 C.3     
  44 C44           15.2902     0.2561     1.0847 C.3     
  45 C45           16.6164     0.5935     1.7690 C.3     
  46 C46           15.5203    -0.8343     0.0364 C.3     
  47 H47            4.0536    -8.2410    -1.0389 H       
  48 H48            3.0665    -6.4083     0.2728 H       
  49 H49            1.7156    -4.5528    -3.3340 H       
  50 H50            2.6980    -6.3874    -4.6466 H       
  51 H51            5.9974    -8.7492    -3.1157 H       
  52 H52            4.8503    -9.8876    -2.3819 H       
  53 H53            4.6617   -10.8064    -6.2498 H       
  54 H54            0.4276    -5.3621     0.6837 H       
  55 H55           -0.9303    -4.8556     2.2371 H       
  56 H56           -2.4858    -4.2485     4.0436 H       
  57 H57           -1.5390    -0.1233     3.4949 H       
  58 H58            5.0081    -4.1753    -1.5620 H       
  59 H59            3.9258    -0.1472    -0.6673 H       
  60 H60            6.1132     0.2135     0.3994 H       
  61 H61            7.1995    -3.8328    -0.4975 H       
  62 H62            3.1135    -3.0729    -2.6826 H       
  63 H63            2.6090    -1.4396    -2.1864 H       
  64 H64            8.8090    -3.5742     0.2851 H       
  65 H65           10.9969    -3.2131     1.3506 H       
  66 H66            9.9155     0.8157     2.2432 H       
  67 H67            7.7250     0.4739     1.1766 H       
  68 H68           11.8311    -0.2214     3.3056 H       
  69 H69           12.2823    -1.9026     2.9334 H       
  70 H70           13.0248    -1.2031     0.6734 H       
  71 H71           12.5737     0.4781     1.0455 H       
  72 H72           14.1933     0.4971     2.9230 H       
  73 H73           14.6444    -1.1841     2.5509 H       
  74 H74           14.8941     1.1484     0.6000 H       
  75 H75           17.0125    -0.2988     2.2538 H       
  76 H76           17.3290     0.9495     1.0250 H       
  77 H77           16.4525     1.3703     2.5159 H       
  78 H78           14.5755    -1.0747    -0.4512 H       
  79 H79           16.2329    -0.4784    -0.7077 H       
  80 H80           15.9164    -1.7266     0.5211 H       
@<TRIPOS>BOND
   1    1    2 ar
   2    1    6 ar
   3    1   47 1
   4    2    3 ar
   5    2   48 1
   6    3    4 ar
   7    3   15 1
   8    4    5 ar
   9    4   49 1
  10    5    6 ar
  11    5   50 1
  12    6    7 1
  13    7    8 1
  14    7   11 am
  15    8    9 1
  16    8   51 1
  17    8   52 1
  18    9   10 am
  19    9   12 2
  20   10   11 am
  21   10   53 1
  22   11   13 2
  23   11   14 2
  24   15   16 1
  25   15   17 1
  26   16   19 2
  27   16   54 1
  28   17   18 2
  29   17   35 1
  30   18   19 1
  31   19   20 1
  32   20   21 ar
  33   20   22 ar
  34   21   34 1
  35   21   25 ar
  36   22   23 ar
  37   22   55 1
  38   23   24 ar
  39   23   56 1
  40   24   25 ar
  41   24   33 1
  42   25   57 1
  43   26   27 ar
  44   26   28 ar
  45   26   35 1
  46   27   31 ar
  47   27   58 1
  48   28   29 ar
  49   28   59 1
  50   29   30 ar
  51   29   60 1
  52   30   31 ar
  53   30   32 1
  54   31   61 1
  55   32   36 ar
  56   32   40 ar
  57   35   62 1
  58   35   63 1
  59   36   37 ar
  60   36   64 1
  61   37   38 ar
  62   37   65 1
  63   38   39 ar
  64   38   41 1
  65   39   40 ar
  66   39   66 1
  67   40   67 1
  68   41   42 1
  69   41   68 1
  70   41   69 1
  71   42   43 1
  72   42   70 1
  73   42   71 1
  74   43   44 1
  75   43   72 1
  76   43   73 1
  77   44   45 1
  78   44   46 1
  79   44   74 1
  80   45   75 1
  81   45   76 1
  82   45   77 1
  83   46   78 1
  84   46   79 1
  85   46   80 1

#	End of record

