#	Name: ASD01913170
#	Creating user name:	WinNT
#	Creation time:	15. 06. 2019 20:01

#	Modifying user name:	WinNT
#	Modification time:	15. 06. 2019 20:01

#	Program:	/corina/corina34_cracker 3.40 0067  02.08.2006

@<TRIPOS>MOLECULE
ASD01913170
  48   51    0    0    0
SMALL
NO_CHARGES


@<TRIPOS>ATOM
   1 C1             0.7301     1.1796    -1.0055 C.3     
   2 N2             0.3534    -0.1342    -0.4730 N.am    
   3 C3             1.3092    -0.7960     0.4306 C.3     
   4 C4             2.5769    -1.0980    -0.3671 C.3     
   5 C5             3.0150     0.1086    -1.1548 C.ar    
   6 C6             4.3365     0.1499    -1.5898 C.ar    
   7 C7             4.8015     1.2234    -2.3241 C.ar    
   8 C8             3.9487     2.2665    -2.6321 C.ar    
   9 C9             2.6372     2.2298    -2.1988 C.ar    
  10 C10            2.1691     1.1515    -1.4558 C.ar    
  11 C11           -0.8202    -0.7121    -0.7974 C.2     
  12 C12           -1.8130     0.0318    -1.5978 C.ar    
  13 C13           -2.6088    -0.6422    -2.5231 C.ar    
  14 C14           -3.5442     0.0650    -3.2751 C.ar    
  15 C15           -3.6783     1.4517    -3.0954 C.ar    
  16 C16           -2.8806     2.1119    -2.1720 C.ar    
  17 C17           -1.9592     1.4117    -1.4239 C.ar    
  18 O18           -1.0613    -1.8460    -0.4308 O.2     
  19 C19           -4.3655    -0.6189    -4.2281 C.1     
  20 C20           -5.0389    -1.1797    -5.0095 C.1     
  21 C21           -5.8603    -1.8636    -5.9625 C.ar    
  22 C22           -6.7963    -1.1466    -6.7130 C.ar    
  23 C23           -7.5815    -1.8222    -7.6289 C.ar    
  24 C24           -7.4085    -3.1931    -7.7679 C.ar    
  25 C25           -6.4639    -3.8410    -6.9935 C.ar    
  26 N26           -5.7233    -3.1755    -6.1310 N.ar    
  27 O27           -4.5872     2.1452    -3.8248 O.3     
  28 C28           -4.6697     3.5524    -3.5902 C.3     
  29 F29            1.8034     3.2496    -2.4985 F       
  30 F30            5.1720    -0.8689    -1.2909 F       
  31 H31            0.0896     1.4249    -1.8527 H       
  32 H32            0.6078     1.9344    -0.2287 H       
  33 H33            1.5467    -0.1352     1.2643 H       
  34 H34            0.8796    -1.7247     0.8060 H       
  35 H35            3.3727    -1.3858     0.3200 H       
  36 H36            2.3810    -1.9221    -1.0530 H       
  37 H37            5.8288     1.2477    -2.6565 H       
  38 H38            4.3060     3.1070    -3.2086 H       
  39 H39           -2.5003    -1.7085    -2.6566 H       
  40 H40           -2.9853     3.1782    -2.0358 H       
  41 H41           -1.3449     1.9311    -0.7034 H       
  42 H42           -6.9050    -0.0805    -6.5792 H       
  43 H43           -8.3136    -1.2953    -8.2229 H       
  44 H44           -8.0071    -3.7486    -8.4747 H       
  45 H45           -6.3281    -4.9071    -7.1005 H       
  46 H46           -3.7064     4.0140    -3.8072 H       
  47 H47           -5.4335     3.9844    -4.2369 H       
  48 H48           -4.9322     3.7322    -2.5477 H       
@<TRIPOS>BOND
   1    1    2 1
   2    1   10 1
   3    1   31 1
   4    1   32 1
   5    2    3 1
   6    2   11 am
   7    3    4 1
   8    3   33 1
   9    3   34 1
  10    4    5 1
  11    4   35 1
  12    4   36 1
  13    5    6 ar
  14    5   10 ar
  15    6    7 ar
  16    6   30 1
  17    7    8 ar
  18    7   37 1
  19    8    9 ar
  20    8   38 1
  21    9   10 ar
  22    9   29 1
  23   11   12 1
  24   11   18 2
  25   12   13 ar
  26   12   17 ar
  27   13   14 ar
  28   13   39 1
  29   14   15 ar
  30   14   19 1
  31   15   16 ar
  32   15   27 1
  33   16   17 ar
  34   16   40 1
  35   17   41 1
  36   19   20 3
  37   20   21 1
  38   21   22 ar
  39   21   26 ar
  40   22   23 ar
  41   22   42 1
  42   23   24 ar
  43   23   43 1
  44   24   25 ar
  45   24   44 1
  46   25   26 ar
  47   25   45 1
  48   27   28 1
  49   28   46 1
  50   28   47 1
  51   28   48 1

#	End of record

