#	Name: ASD01870278
#	Creating user name:	WinNT
#	Creation time:	15. 06. 2019 19:38

#	Modifying user name:	WinNT
#	Modification time:	15. 06. 2019 19:38

#	Program:	/corina/corina34_cracker 3.40 0067  02.08.2006

@<TRIPOS>MOLECULE
ASD01870278
  34   36    0    0    0
SMALL
NO_CHARGES


@<TRIPOS>ATOM
   1 C1             0.2060     1.5129     1.6684 C.ar    
   2 N2             0.2379     0.2084     1.8664 N.ar    
   3 C3             1.3492    -0.4918     1.7385 C.ar    
   4 C4             2.5348     0.1194     1.3886 C.ar    
   5 C5             2.5468     1.5008     1.1691 C.ar    
   6 C6             1.3463     2.2035     1.3158 C.ar    
   7 C7             3.7974     2.2008     0.7919 C.2     
   8 N8             4.9496     1.5620     0.6402 N.2     
   9 C9             3.8415     3.5284     0.5740 C.2     
  10 S10            5.4963     3.9623     0.1515 S.3     
  11 C11            5.9793     2.2760     0.3081 C.2     
  12 N12            7.2628     1.7870     0.1051 N.am    
  13 C13            7.5354     0.3565     0.2648 C.3     
  14 C14            8.2579     2.6283    -0.2389 C.2     
  15 C15            9.6418     2.1265    -0.3556 C.ar    
  16 O16            8.0162     3.8004    -0.4532 O.2     
  17 C17            9.8809     0.8312    -0.8204 C.ar    
  18 C18           10.7168     2.9474    -0.0071 C.ar    
  19 C19           12.0065     2.4741    -0.1184 C.ar    
  20 C20           12.2378     1.1857    -0.5758 C.ar    
  21 C21           11.1746     0.3681    -0.9278 C.ar    
  22 F22           13.5040     0.7269    -0.6835 F       
  23 H23           -0.7267     2.0459     1.7797 H       
  24 H24            1.3300    -1.5578     1.9104 H       
  25 H25            3.4406    -0.4597     1.2860 H       
  26 H26            1.3128     3.2709     1.1549 H       
  27 H27            3.0068     4.2099     0.6457 H       
  28 H28            7.4187    -0.1451    -0.6958 H       
  29 H29            8.5548     0.2189     0.6251 H       
  30 H30            6.8353    -0.0687     0.9841 H       
  31 H31            9.0535     0.1936    -1.0948 H       
  32 H32           10.5378     3.9513     0.3486 H       
  33 H33           12.8384     3.1080     0.1508 H       
  34 H34           11.3606    -0.6332    -1.2870 H       
@<TRIPOS>BOND
   1    1    2 ar
   2    1    6 ar
   3    1   23 1
   4    2    3 ar
   5    3    4 ar
   6    3   24 1
   7    4    5 ar
   8    4   25 1
   9    5    6 ar
  10    5    7 1
  11    6   26 1
  12    7    9 2
  13    7    8 1
  14    8   11 2
  15    9   10 1
  16    9   27 1
  17   10   11 1
  18   11   12 1
  19   12   13 1
  20   12   14 am
  21   13   28 1
  22   13   29 1
  23   13   30 1
  24   14   15 1
  25   14   16 2
  26   15   18 ar
  27   15   17 ar
  28   17   21 ar
  29   17   31 1
  30   18   19 ar
  31   18   32 1
  32   19   20 ar
  33   19   33 1
  34   20   21 ar
  35   20   22 1
  36   21   34 1

#	End of record

