#	Name: ASD01908076
#	Creating user name:	WinNT
#	Creation time:	15. 06. 2019 19:54

#	Modifying user name:	WinNT
#	Modification time:	15. 06. 2019 19:54

#	Program:	/corina/corina34_cracker 3.40 0067  02.08.2006

@<TRIPOS>MOLECULE
ASD01908076
  34   35    0    0    0
SMALL
NO_CHARGES


@<TRIPOS>ATOM
   1 N1            -0.0169     1.3953     0.0097 N.pl3   
   2 N2             0.0021    -0.0041     0.0020 N.2     
   3 C3             1.2430    -0.4084    -0.0120 C.2     
   4 C4             2.0748     0.7315    -0.0138 C.2     
   5 C5             1.2530     1.8372    -0.0000 C.2     
   6 C6             3.5532     0.7380    -0.0275 C.2     
   7 N7             4.2001     1.8700    -0.0271 N.2     
   8 N8             4.2473    -0.4522    -0.0405 N.pl3   
   9 C9             1.6961     3.2776     0.0035 C.3     
  10 C10           -1.2167     2.2359     0.0202 C.3     
  11 C11           -1.6207     2.5170     1.4446 C.ar    
  12 C12           -1.1182     3.6269     2.0983 C.ar    
  13 C13           -1.4870     3.8867     3.4040 C.ar    
  14 C14           -2.3623     3.0329     4.0594 C.ar    
  15 C15           -2.8651     1.9199     3.4012 C.ar    
  16 C16           -2.4976     1.6676     2.0937 C.ar    
  17 O17           -2.7263     3.2860     5.3440 O.3     
  18 C18           -3.6308     2.3643     5.9557 C.3     
  19 H19            1.5752    -1.4360    -0.0207 H       
  20 H20            5.1701     1.8743    -0.0361 H       
  21 H21            3.7660    -1.2944    -0.0408 H       
  22 H22            5.2173    -0.4479    -0.0495 H       
  23 H23            1.8127     3.6194     1.0319 H       
  24 H24            2.6486     3.3661    -0.5190 H       
  25 H25            0.9474     3.8893    -0.5000 H       
  26 H26           -1.0062     3.1759    -0.4899 H       
  27 H27           -2.0276     1.7182    -0.4920 H       
  28 H28           -0.4365     4.2911     1.5879 H       
  29 H29           -1.0939     4.7536     3.9144 H       
  30 H30           -3.5466     1.2537     3.9092 H       
  31 H31           -2.8924     0.8039     1.5793 H       
  32 H32           -3.8383     2.6826     6.9773 H       
  33 H33           -4.5608     2.3368     5.3878 H       
  34 H34           -3.1834     1.3704     5.9685 H       
@<TRIPOS>BOND
   1    1    2 1
   2    1    5 1
   3    1   10 1
   4    2    3 2
   5    3    4 1
   6    3   19 1
   7    4    5 2
   8    4    6 1
   9    5    9 1
  10    6    7 2
  11    6    8 1
  12    7   20 1
  13    8   21 1
  14    8   22 1
  15    9   23 1
  16    9   24 1
  17    9   25 1
  18   10   11 1
  19   10   26 1
  20   10   27 1
  21   11   12 ar
  22   11   16 ar
  23   12   13 ar
  24   12   28 1
  25   13   14 ar
  26   13   29 1
  27   14   15 ar
  28   14   17 1
  29   15   16 ar
  30   15   30 1
  31   16   31 1
  32   17   18 1
  33   18   32 1
  34   18   33 1
  35   18   34 1

#	End of record

