#	Name: ASD02038034
#	Creating user name:	WinNT
#	Creation time:	15. 06. 2019 20:16

#	Modifying user name:	WinNT
#	Modification time:	15. 06. 2019 20:16

#	Program:	/corina/corina34_cracker 3.40 0067  02.08.2006

@<TRIPOS>MOLECULE
ASD02038034
  43   45    0    0    0
SMALL
NO_CHARGES


@<TRIPOS>ATOM
   1 C1            -0.0165     1.3839     0.0025 C.ar    
   2 N2             1.1847     2.1021     0.0020 N.am    
   3 N3             2.3151     4.1445     0.0016 N.am    
   4 C4             1.1661     3.4464    -0.0923 C.2     
   5 C5             5.2005     5.9259     0.4371 C.3     
   6 O6             6.2236     5.6177     1.3859 O.3     
   7 C7             7.4457     6.1773     1.1796 C.ar    
   8 C8             8.4841     5.9200     2.0623 C.ar    
   9 C9             7.6553     7.0008     0.0834 C.ar    
  10 C10            8.8967     7.5692    -0.1261 C.ar    
  11 C11            9.9334     7.3168     0.7600 C.ar    
  12 C12            9.7255     6.4885     1.8529 C.ar    
  13 O13            0.1127     4.0294    -0.2621 O.2     
  14 C14           -0.1443     0.2424     0.7828 C.ar    
  15 O15           11.1556     7.8761     0.5536 O.3     
  16 C16           -1.0850     1.8147    -0.7729 C.ar    
  17 C17           -2.2691     1.1037    -0.7703 C.ar    
  18 C18           -2.3914    -0.0356     0.0037 C.ar    
  19 C19           -1.3330    -0.4609     0.7855 C.ar    
  20 C20            2.6993     5.5632    -0.0481 C.3     
  21 C21            3.9066     5.2112     0.8320 C.3     
  22 C22            3.7357     3.8232     0.2055 C.3     
  23 C23           -3.6850    -0.8087     0.0046 C.3     
  24 F24           -3.6491    -1.7791    -1.0025 F       
  25 F25           -3.8556    -1.4309     1.2459 F       
  26 F26           -4.7514     0.0664    -0.2288 F       
  27 H27            2.0306     1.6323     0.0696 H       
  28 H28            5.0309     7.0026     0.4225 H       
  29 H29            5.5114     5.5936    -0.5534 H       
  30 H30            8.3220     5.2755     2.9137 H       
  31 H31            6.8480     7.1973    -0.6065 H       
  32 H32            9.0601     8.2098    -0.9800 H       
  33 H33           10.5327     6.2922     2.5431 H       
  34 H34            0.6849    -0.0953     1.3867 H       
  35 H35           11.2693     8.7393     0.9743 H       
  36 H36           -0.9902     2.7048    -1.3771 H       
  37 H37           -3.1004     1.4382    -1.3731 H       
  38 H38           -1.4316    -1.3512     1.3889 H       
  39 H39            2.9744     5.9037    -1.0464 H       
  40 H40            1.9836     6.2241     0.4409 H       
  41 H41            3.7037     5.2428     1.9025 H       
  42 H42            3.9016     3.0065     0.9080 H       
  43 H43            4.2867     3.6968    -0.7264 H       
@<TRIPOS>BOND
   1    1   16 ar
   2    1    2 1
   3    1   14 ar
   4    2    4 am
   5    2   27 1
   6    3    4 am
   7    3   20 1
   8    3   22 1
   9    4   13 2
  10    5    6 1
  11    5   21 1
  12    5   28 1
  13    5   29 1
  14    6    7 1
  15    7    8 ar
  16    7    9 ar
  17    8   12 ar
  18    8   30 1
  19    9   10 ar
  20    9   31 1
  21   10   11 ar
  22   10   32 1
  23   11   12 ar
  24   11   15 1
  25   12   33 1
  26   14   19 ar
  27   14   34 1
  28   15   35 1
  29   16   17 ar
  30   16   36 1
  31   17   18 ar
  32   17   37 1
  33   18   19 ar
  34   18   23 1
  35   19   38 1
  36   20   21 1
  37   20   39 1
  38   20   40 1
  39   21   22 1
  40   21   41 1
  41   22   42 1
  42   22   43 1
  43   23   24 1
  44   23   25 1
  45   23   26 1

#	End of record

