#	Name: ASD00450074
#	Creating user name:	WinNT
#	Creation time:	15. 06. 2019 18:36

#	Modifying user name:	WinNT
#	Modification time:	15. 06. 2019 18:36

#	Program:	/corina/corina34_cracker 3.40 0067  02.08.2006

@<TRIPOS>MOLECULE
ASD00450074
  52   54    0    0    0
SMALL
NO_CHARGES


@<TRIPOS>ATOM
   1 C1            -0.8158     1.5358     0.7439 C.ar    
   2 C2            -0.7291     0.1514     0.5304 C.ar    
   3 C3             0.5034    -0.4765     0.5767 C.ar    
   4 C4             1.6517     0.2561     0.8335 C.ar    
   5 C5             1.5793     1.6234     1.0464 C.ar    
   6 C6             0.3529     2.2720     1.0032 C.ar    
   7 C7            -2.1200     2.2125     0.6906 C.2     
   8 O8            -2.7886     2.3252     1.7007 O.2     
   9 N9            -2.5750     2.7080    -0.4774 N.am    
  10 N10            0.2809     3.6445     1.2160 N.pl3   
  11 C11            1.4308     4.4320     1.0969 C.ar    
  12 C12            2.0246     4.6149    -0.1475 C.ar    
  13 C13            1.9789     5.0376     2.2198 C.ar    
  14 C14            3.1145     5.8147     2.0994 C.ar    
  15 C15            3.7066     5.9911     0.8616 C.ar    
  16 C16            3.1613     5.3941    -0.2609 C.ar    
  17 F17            2.8495    -0.3673     0.8768 F       
  18 F18            1.4919     4.0318    -1.2436 F       
  19 I19            5.4280     7.1720     0.6853 I       
  20 F20            2.7053     2.3269     1.2962 F       
  21 O21           -1.8508    -0.5697     0.2796 O.3     
  22 C22           -1.7091    -1.8896    -0.0105 C.ar    
  23 C23           -1.4479    -2.7982     1.0031 C.ar    
  24 C24           -1.3042    -4.1461     0.7033 C.ar    
  25 C25           -1.4226    -4.5798    -0.6113 C.ar    
  26 C26           -1.6830    -3.6709    -1.6188 C.ar    
  27 C27           -1.8316    -2.3297    -1.3215 C.ar    
  28 N28           -1.0405    -5.0647     1.7217 N.am    
  29 S29           -1.8670    -6.4986     1.7778 S.o2    
  30 O30           -1.7833    -7.0613     0.4757 O.2     
  31 O31           -1.4211    -7.1733     2.9462 O.2     
  32 N32           -3.4631    -6.1349     2.0283 N.am    
  33 C33           -4.3787    -6.0332     0.8892 C.3     
  34 C34           -3.9594    -5.9148     3.3889 C.3     
  35 H35            0.5707    -1.5418     0.4125 H       
  36 H36           -2.0419     2.6181    -1.2828 H       
  37 H37           -3.4354     3.1544    -0.5125 H       
  38 H38           -0.5668     4.0557     1.4471 H       
  39 H39            1.5173     4.9014     3.1867 H       
  40 H40            3.5407     6.2857     2.9729 H       
  41 H41            3.6237     5.5368    -1.2264 H       
  42 H42           -1.3560    -2.4582     2.0240 H       
  43 H43           -1.3106    -5.6280    -0.8459 H       
  44 H44           -1.7747    -4.0099    -2.6401 H       
  45 H45           -2.0351    -1.6217    -2.1113 H       
  46 H46           -0.3732    -4.8629     2.3961 H       
  47 H47           -4.8209    -7.0094     0.6902 H       
  48 H48           -5.1675    -5.3172     1.1198 H       
  49 H49           -3.8289    -5.6974     0.0099 H       
  50 H50           -3.1245    -5.9419     4.0891 H       
  51 H51           -4.4486    -4.9423     3.4443 H       
  52 H52           -4.6745    -6.6963     3.6457 H       
@<TRIPOS>BOND
   1    1    2 ar
   2    1    6 ar
   3    1    7 1
   4    2    3 ar
   5    2   21 1
   6    3    4 ar
   7    3   35 1
   8    4    5 ar
   9    4   17 1
  10    5    6 ar
  11    5   20 1
  12    6   10 1
  13    7    8 2
  14    7    9 am
  15    9   36 1
  16    9   37 1
  17   10   11 1
  18   10   38 1
  19   11   13 ar
  20   11   12 ar
  21   12   16 ar
  22   12   18 1
  23   13   14 ar
  24   13   39 1
  25   14   15 ar
  26   14   40 1
  27   15   16 ar
  28   15   19 1
  29   16   41 1
  30   21   22 1
  31   22   23 ar
  32   22   27 ar
  33   23   24 ar
  34   23   42 1
  35   24   25 ar
  36   24   28 1
  37   25   26 ar
  38   25   43 1
  39   26   27 ar
  40   26   44 1
  41   27   45 1
  42   28   29 am
  43   28   46 1
  44   29   30 2
  45   29   31 2
  46   29   32 am
  47   32   33 1
  48   32   34 1
  49   33   47 1
  50   33   48 1
  51   33   49 1
  52   34   50 1
  53   34   51 1
  54   34   52 1

#	End of record

