#	Name: ASD07931754
#	Creating user name:	WinNT
#	Creation time:	15. 06. 2019 21:13

#	Modifying user name:	WinNT
#	Modification time:	15. 06. 2019 21:13

#	Program:	/corina/corina34_cracker 3.40 0067  02.08.2006

@<TRIPOS>MOLECULE
ASD07931754
  57   61    0    0    0
SMALL
NO_CHARGES


@<TRIPOS>ATOM
   1 C1            -0.0451     1.4706    -0.0075 C.2     
   2 C2            -0.0121    -0.0087    -0.0072 C.2     
   3 N3             1.1484     2.1565    -0.0190 N.am    
   4 N4             1.1106    -0.6324     0.4232 N.am    
   5 C5             2.2334     0.1852     0.9043 C.3     
   6 C6             2.3998     1.3870    -0.0375 C.3     
   7 C7            -1.2337     2.1334    -0.0021 C.2     
   8 C8            -1.2698     3.5333    -0.0003 C.2     
   9 C9            -0.0969     4.2374    -0.0030 C.2     
  10 C10            1.1692     3.5006    -0.0146 C.2     
  11 O11           -0.9728    -0.6509    -0.3851 O.2     
  12 O12            2.2308     4.1003    -0.0203 O.2     
  13 C13            0.3534     6.4447     0.9892 C.2     
  14 N14            0.1739     7.6859     0.6278 N.2     
  15 C15           -0.3975     7.7175    -0.5855 C.2     
  16 C16           -0.5817     6.4488    -0.9971 C.2     
  17 N17           -0.1065     5.6351    -0.0008 N.pl3   
  18 C18           -0.7696     8.9588    -1.3548 C.3     
  19 C19            1.2042    -2.0943     0.4091 C.3     
  20 C20            0.1012    -2.7017     1.2935 C.3     
  21 C21           -0.7690    -3.5806     0.3715 C.3     
  22 C22            0.1682    -3.9363    -0.8093 C.3     
  23 C23            0.9658    -2.6253    -1.0195 C.3     
  24 O24           -0.6919    -1.6621     1.8700 O.3     
  25 C25           -1.3377    -1.9502     3.0311 C.ar    
  26 C26           -2.0359    -0.9568     3.7021 C.ar    
  27 C27           -2.6920    -1.2510     4.8815 C.ar    
  28 C28           -2.6526    -2.5367     5.3943 C.ar    
  29 C29           -1.9562    -3.5289     4.7258 C.ar    
  30 C30           -1.3038    -3.2387     3.5429 C.ar    
  31 C31           -2.0782     0.4427     3.1448 C.3     
  32 F32           -2.8366     1.2589     3.9910 F       
  33 F33           -0.7768     0.9477     3.0532 F       
  34 F34           -2.6605     0.4208     1.8730 F       
  35 F35           -3.2940    -2.8229     6.5484 F       
  36 H36            2.0235     0.5376     1.9141 H       
  37 H37            3.1466    -0.4100     0.9034 H       
  38 H38            2.6017     1.0365    -1.0497 H       
  39 H39            3.2226     2.0136     0.3068 H       
  40 H40           -2.1578     1.5745     0.0005 H       
  41 H41           -2.2165     4.0532     0.0028 H       
  42 H42            0.7973     6.1162     1.9173 H       
  43 H43           -1.0196     6.1327    -1.9324 H       
  44 H44            0.0703     9.2652    -1.9783 H       
  45 H45           -1.6334     8.7499    -1.9859 H       
  46 H46           -1.0148     9.7591    -0.6566 H       
  47 H47            2.1847    -2.4096     0.7659 H       
  48 H48            0.5464    -3.3117     2.0795 H       
  49 H49           -1.0854    -4.4839     0.8929 H       
  50 H50           -1.6344    -3.0210     0.0165 H       
  51 H51            0.8351    -4.7553    -0.5400 H       
  52 H52           -0.4095    -4.1840    -1.6999 H       
  53 H53            0.3806    -1.9115    -1.5992 H       
  54 H54            1.9155    -2.8316    -1.5132 H       
  55 H55           -3.2357    -0.4779     5.4041 H       
  56 H56           -1.9262    -4.5312     5.1269 H       
  57 H57           -0.7640    -4.0139     3.0193 H       
@<TRIPOS>BOND
   1    1    2 1
   2    1    3 1
   3    1    7 2
   4    2    4 am
   5    2   11 2
   6    3    6 1
   7    3   10 am
   8    4    5 1
   9    4   19 1
  10    5    6 1
  11    5   36 1
  12    5   37 1
  13    6   38 1
  14    6   39 1
  15    7    8 1
  16    7   40 1
  17    8    9 2
  18    8   41 1
  19    9   10 1
  20    9   17 1
  21   10   12 2
  22   13   14 2
  23   13   17 1
  24   13   42 1
  25   14   15 1
  26   15   16 2
  27   15   18 1
  28   16   17 1
  29   16   43 1
  30   18   44 1
  31   18   45 1
  32   18   46 1
  33   19   20 1
  34   19   23 1
  35   19   47 1
  36   20   21 1
  37   20   24 1
  38   20   48 1
  39   21   22 1
  40   21   49 1
  41   21   50 1
  42   22   23 1
  43   22   51 1
  44   22   52 1
  45   23   53 1
  46   23   54 1
  47   24   25 1
  48   25   26 ar
  49   25   30 ar
  50   26   27 ar
  51   26   31 1
  52   27   28 ar
  53   27   55 1
  54   28   29 ar
  55   28   35 1
  56   29   30 ar
  57   29   56 1
  58   30   57 1
  59   31   32 1
  60   31   33 1
  61   31   34 1

#	End of record

