#	Name: ASD02039388
#	Creating user name:	WinNT
#	Creation time:	15. 06. 2019 20:18

#	Modifying user name:	WinNT
#	Modification time:	15. 06. 2019 20:18

#	Program:	/corina/corina34_cracker 3.40 0067  02.08.2006

@<TRIPOS>MOLECULE
ASD02039388
  51   53    0    0    0
SMALL
NO_CHARGES


@<TRIPOS>ATOM
   1 C1            -0.1271     1.5235    -0.1521 C.ar    
   2 C2            -0.1250     0.1393    -0.0542 C.ar    
   3 C3            -1.3214    -0.5485    -0.1403 C.ar    
   4 C4            -2.5057     1.4159    -0.4017 C.ar    
   5 C5            -1.3373     2.1716    -0.3287 C.ar    
   6 C6            -3.8102     2.0950    -0.5907 C.ar    
   7 C7             1.1588     2.3041    -0.0620 C.3     
   8 N8             1.7991     2.3442    -1.3790 N.am    
   9 C9             1.3656     3.3275    -2.3746 C.3     
  10 C10            2.7870     1.4763    -1.6747 C.2     
  11 C11            3.1633     0.4310    -0.7072 C.2     
  12 C12            4.1817    -0.4662    -0.8447 C.2     
  13 N13            2.5634     0.1889     0.4864 N.2     
  14 C14            3.1667    -0.8085     1.0660 C.2     
  15 N15            4.1768    -1.2395     0.2664 N.pl3   
  16 O16            3.3678     1.5562    -2.7403 O.2     
  17 C17            5.0955    -2.3436     0.5546 C.3     
  18 C18           -4.9836     1.3457    -0.6647 C.ar    
  19 N19           -2.4593     0.0925    -0.3141 N.ar    
  20 C20            2.5144     4.2936    -2.6711 C.3     
  21 C21            0.9611     2.6059    -3.6617 C.3     
  22 C22           -3.8664     3.4846    -0.6891 C.ar    
  23 C23           -5.0809     4.1132    -0.8649 C.ar    
  24 C24           -6.2472     3.3638    -0.9434 C.ar    
  25 C25           -6.1950     1.9801    -0.8405 C.ar    
  26 O26           -7.4424     3.9861    -1.1157 O.3     
  27 C27           -8.6023     3.1545    -1.1881 C.3     
  28 F28           -8.4779     2.2738    -2.2680 F       
  29 F29           -8.7267     2.4234    -0.0019 F       
  30 H30            0.8023    -0.3957     0.0876 H       
  31 H31           -1.3231    -1.6259    -0.0644 H       
  32 H32           -1.3764     3.2486    -0.3998 H       
  33 H33            0.9445     3.3203     0.2689 H       
  34 H34            1.8267     1.8227     0.6523 H       
  35 H35            0.5128     3.8850    -1.9873 H       
  36 H36            4.8615    -0.5447    -1.6802 H       
  37 H37            2.9078    -1.2242     2.0286 H       
  38 H38            4.6794    -3.2733     0.1665 H       
  39 H39            6.0571    -2.1497     0.0793 H       
  40 H40            5.2337    -2.4294     1.6324 H       
  41 H41           -4.9436     0.2694    -0.5847 H       
  42 H42            3.3336     3.7504    -3.1422 H       
  43 H43            2.1653     5.0782    -3.3423 H       
  44 H44            2.8627     4.7405    -1.7399 H       
  45 H45            0.2083     1.8513    -3.4339 H       
  46 H46            0.5507     3.3268    -4.3688 H       
  47 H47            1.8362     2.1256    -4.0993 H       
  48 H48           -2.9597     4.0680    -0.6274 H       
  49 H49           -5.1251     5.1896    -0.9411 H       
  50 H50           -7.1038     1.3998    -0.9023 H       
  51 H51           -9.4869     3.7761    -1.3263 H       
@<TRIPOS>BOND
   1    1    2 ar
   2    1    7 1
   3    1    5 ar
   4    2    3 ar
   5    2   30 1
   6    3   19 ar
   7    3   31 1
   8    4    5 ar
   9    4    6 1
  10    4   19 ar
  11    5   32 1
  12    6   18 ar
  13    6   22 ar
  14    7    8 1
  15    7   33 1
  16    7   34 1
  17    8    9 1
  18    8   10 am
  19    9   20 1
  20    9   21 1
  21    9   35 1
  22   10   11 1
  23   10   16 2
  24   11   12 2
  25   11   13 1
  26   12   15 1
  27   12   36 1
  28   13   14 2
  29   14   15 1
  30   14   37 1
  31   15   17 1
  32   17   38 1
  33   17   39 1
  34   17   40 1
  35   18   25 ar
  36   18   41 1
  37   20   42 1
  38   20   43 1
  39   20   44 1
  40   21   45 1
  41   21   46 1
  42   21   47 1
  43   22   23 ar
  44   22   48 1
  45   23   24 ar
  46   23   49 1
  47   24   25 ar
  48   24   26 1
  49   25   50 1
  50   26   27 1
  51   27   28 1
  52   27   29 1
  53   27   51 1

#	End of record

