#	Name: ASD01883836
#	Creating user name:	WinNT
#	Creation time:	15. 06. 2019 19:47

#	Modifying user name:	WinNT
#	Modification time:	15. 06. 2019 19:47

#	Program:	/corina/corina34_cracker 3.40 0067  02.08.2006

@<TRIPOS>MOLECULE
ASD01883836
  41   44    0    0    0
SMALL
NO_CHARGES


@<TRIPOS>ATOM
   1 Cl1            5.6193     8.1901    -2.2245 Cl      
   2 C2             5.4572     6.5637    -1.6392 C.ar    
   3 C3             6.4451     5.6319    -1.9025 C.ar    
   4 C4             6.3154     4.3370    -1.4363 C.ar    
   5 C5             5.1989     3.9733    -0.7071 C.ar    
   6 C6             4.2112     4.9042    -0.4436 C.ar    
   7 C7             2.9942     4.5069     0.3514 C.3     
   8 N8             3.2145     4.8127     1.7671 N.pl3   
   9 C9             2.8124     5.9355     2.4215 C.2     
  10 C10            2.0580     7.0781     1.7920 C.3     
  11 C11            0.5827     6.9073     2.0475 C.ar    
  12 C12           -0.2197     6.3112     1.0926 C.ar    
  13 C13           -1.5730     6.1546     1.3270 C.ar    
  14 C14           -2.1238     6.5936     2.5165 C.ar    
  15 C15           -1.3213     7.1888     3.4717 C.ar    
  16 C16            0.0328     7.3416     3.2391 C.ar    
  17 N17            3.1737     5.8790     3.6702 N.2     
  18 C18            3.8329     4.7149     3.9025 C.ar    
  19 C19            4.4242     4.1522     5.0362 C.ar    
  20 C20            5.0299     2.9302     4.9527 C.ar    
  21 C21            5.0651     2.2384     3.7507 C.ar    
  22 C22            4.4880     2.7744     2.6188 C.ar    
  23 C23            3.8634     4.0121     2.6858 C.ar    
  24 C24            4.3424     6.2005    -0.9043 C.ar    
  25 H25            7.3173     5.9159    -2.4725 H       
  26 H26            7.0864     3.6094    -1.6421 H       
  27 H27            5.0979     2.9614    -0.3434 H       
  28 H28            2.1276     5.0609    -0.0094 H       
  29 H29            2.8166     3.4379     0.2340 H       
  30 H30            2.3954     8.0193     2.2261 H       
  31 H31            2.2420     7.0869     0.7177 H       
  32 H32            0.2106     5.9683     0.1634 H       
  33 H33           -2.2000     5.6895     0.5807 H       
  34 H34           -3.1813     6.4718     2.6993 H       
  35 H35           -1.7517     7.5321     4.4009 H       
  36 H36            0.6605     7.8032     3.9870 H       
  37 H37            4.4030     4.6822     5.9770 H       
  38 H38            5.4863     2.4986     5.8313 H       
  39 H39            5.5480     1.2737     3.7010 H       
  40 H40            4.5184     2.2320     1.6854 H       
  41 H41            3.5731     6.9288    -0.6943 H       
@<TRIPOS>BOND
   1    1    2 1
   2    2   24 ar
   3    2    3 ar
   4    3    4 ar
   5    3   25 1
   6    4    5 ar
   7    4   26 1
   8    5    6 ar
   9    5   27 1
  10    6    7 1
  11    6   24 ar
  12    7    8 1
  13    7   28 1
  14    7   29 1
  15    8   23 1
  16    8    9 1
  17    9   10 1
  18    9   17 2
  19   10   11 1
  20   10   30 1
  21   10   31 1
  22   11   16 ar
  23   11   12 ar
  24   12   13 ar
  25   12   32 1
  26   13   14 ar
  27   13   33 1
  28   14   15 ar
  29   14   34 1
  30   15   16 ar
  31   15   35 1
  32   16   36 1
  33   17   18 1
  34   18   23 ar
  35   18   19 ar
  36   19   20 ar
  37   19   37 1
  38   20   21 ar
  39   20   38 1
  40   21   22 ar
  41   21   39 1
  42   22   23 ar
  43   22   40 1
  44   24   41 1

#	End of record

