#	Name: ASD01917830
#	Creating user name:	WinNT
#	Creation time:	15. 06. 2019 20:10

#	Modifying user name:	WinNT
#	Modification time:	15. 06. 2019 20:10

#	Program:	/corina/corina34_cracker 3.40 0067  02.08.2006

@<TRIPOS>MOLECULE
ASD01917830
  51   55    0    0    0
SMALL
NO_CHARGES


@<TRIPOS>ATOM
   1 C1             0.1273     1.4021    -0.6375 C.2     
   2 C2             0.2010     0.0877    -0.9188 C.2     
   3 C3            -1.0073    -0.8354    -0.8837 C.3     
   4 C4            -2.1147    -0.1804    -0.0547 C.3     
   5 N5            -2.2667     1.2205    -0.4757 N.am    
   6 C6            -1.1347     2.1344    -0.2427 C.3     
   7 C7            -3.4039     1.6536    -1.0549 C.2     
   8 O8            -3.5407     2.8296    -1.3180 O.2     
   9 S9             1.7311     2.1035    -0.7998 S.3     
  10 C10            2.3645     0.5743    -1.2264 C.2     
  11 N11            1.4283    -0.3081    -1.2278 N.2     
  12 C12            3.8097     0.2998    -1.5538 C.3     
  13 O13            4.0219     0.4745    -2.9561 O.3     
  14 C14            5.2815     0.2636    -3.4205 C.ar    
  15 C15            5.5586     0.4154    -4.7714 C.ar    
  16 C16            6.8399     0.2004    -5.2409 C.ar    
  17 C17            7.8457    -0.1659    -4.3658 C.ar    
  18 C18            7.5721    -0.3184    -3.0191 C.ar    
  19 C19            6.2938    -0.0985    -2.5436 C.ar    
  20 C20           -4.5056     0.6767    -1.3756 C.3     
  21 C21           -5.2388     0.2832    -0.0868 C.3     
  22 C22           -6.2736    -0.7908    -0.4315 C.3     
  23 C23           -7.0736    -0.3579    -1.6340 C.ar    
  24 C24           -6.6238     0.6425    -2.4771 C.ar    
  25 O25           -5.4466     1.2862    -2.2605 O.3     
  26 C26           -8.2828    -0.9832    -1.8897 C.ar    
  27 C27           -9.0415    -0.6137    -2.9853 C.ar    
  28 C28           -8.5915     0.3855    -3.8319 C.ar    
  29 C29           -7.3882     1.0115    -3.5795 C.ar    
  30 F30          -10.2201    -1.2271    -3.2296 F       
  31 H31           -1.3650    -1.0063    -1.8990 H       
  32 H32           -0.7266    -1.7860    -0.4303 H       
  33 H33           -3.0525    -0.7127    -0.2141 H       
  34 H34           -1.8489    -0.2167     1.0018 H       
  35 H35           -1.0911     2.4088     0.8113 H       
  36 H36           -1.2490     3.0291    -0.8548 H       
  37 H37            4.4452     0.9917    -1.0012 H       
  38 H38            4.0575    -0.7240    -1.2736 H       
  39 H39            4.7732     0.7012    -5.4554 H       
  40 H40            7.0560     0.3182    -6.2925 H       
  41 H41            8.8468    -0.3336    -4.7349 H       
  42 H42            8.3593    -0.6053    -2.3377 H       
  43 H43            6.0805    -0.2177    -1.4916 H       
  44 H44           -4.0831    -0.2124    -1.8438 H       
  45 H45           -4.5250    -0.1127     0.6357 H       
  46 H46           -5.7403     1.1558     0.3317 H       
  47 H47           -5.7634    -1.7281    -0.6535 H       
  48 H48           -6.9429    -0.9350     0.4166 H       
  49 H49           -8.6347    -1.7631    -1.2306 H       
  50 H50           -9.1820     0.6747    -4.6887 H       
  51 H51           -7.0382     1.7908    -4.2403 H       
@<TRIPOS>BOND
   1    1    2 2
   2    1    9 1
   3    1    6 1
   4    2    3 1
   5    2   11 1
   6    3    4 1
   7    3   31 1
   8    3   32 1
   9    4    5 1
  10    4   33 1
  11    4   34 1
  12    5    6 1
  13    5    7 am
  14    6   35 1
  15    6   36 1
  16    7    8 2
  17    7   20 1
  18    9   10 1
  19   10   11 2
  20   10   12 1
  21   12   13 1
  22   12   37 1
  23   12   38 1
  24   13   14 1
  25   14   15 ar
  26   14   19 ar
  27   15   16 ar
  28   15   39 1
  29   16   17 ar
  30   16   40 1
  31   17   18 ar
  32   17   41 1
  33   18   19 ar
  34   18   42 1
  35   19   43 1
  36   20   21 1
  37   20   25 1
  38   20   44 1
  39   21   22 1
  40   21   45 1
  41   21   46 1
  42   22   23 1
  43   22   47 1
  44   22   48 1
  45   23   24 ar
  46   23   26 ar
  47   24   25 1
  48   24   29 ar
  49   26   27 ar
  50   26   49 1
  51   27   28 ar
  52   27   30 1
  53   28   29 ar
  54   28   50 1
  55   29   51 1

#	End of record

