#	Name: ASD01190102
#	Creating user name:	WinNT
#	Creation time:	15. 06. 2019 19:07

#	Modifying user name:	WinNT
#	Modification time:	15. 06. 2019 19:07

#	Program:	/corina/corina34_cracker 3.40 0067  02.08.2006

@<TRIPOS>MOLECULE
ASD01190102
  48   51    0    0    0
SMALL
NO_CHARGES


@<TRIPOS>ATOM
   1 N1             5.4577     1.7575    -3.0505 N.pl3   
   2 C2             6.4049     2.0644    -2.1013 C.2     
   3 C3             5.8680     1.7671    -0.8668 C.2     
   4 C4             4.5768     1.2741    -1.0875 C.2     
   5 C5             4.3532     1.2789    -2.4226 C.2     
   6 C6             7.7113     2.5954    -2.3502 C.1     
   7 N7             8.7477     3.0166    -2.5477 N.1     
   8 C8             3.6079     0.8180    -0.0272 C.3     
   9 C9             3.4946     1.8923     1.0562 C.3     
  10 O10            2.3248     0.5990    -0.6170 O.3     
  11 N11            5.6875    -3.8478     2.3211 N.pl3   
  12 N12            6.9503    -3.3646     2.6794 N.2     
  13 C13            7.0688    -2.1161     2.3260 C.2     
  14 C14            5.8199    -1.7120     1.6879 C.ar    
  15 C15            5.3604    -0.5197     1.1175 C.ar    
  16 C16            4.1037    -0.4654     0.5878 C.ar    
  17 C17            3.2770    -1.5820     0.6106 C.ar    
  18 C18            3.7031    -2.7570     1.1624 C.ar    
  19 C19            4.9802    -2.8425     1.7100 C.ar    
  20 C20            5.2218    -5.1500     2.5446 C.ar    
  21 C21            6.0973    -6.2249     2.4644 C.ar    
  22 C22            5.6361    -7.5078     2.6851 C.ar    
  23 C23            4.3016    -7.7227     2.9860 C.ar    
  24 C24            3.4268    -6.6521     3.0665 C.ar    
  25 C25            3.8851    -5.3671     2.8522 C.ar    
  26 F26            3.8523    -8.9786     3.2011 F       
  27 F27            3.0343     3.0837     0.4852 F       
  28 F28            2.5951     1.4689     2.0405 F       
  29 F29            4.7507     2.1067     1.6335 F       
  30 C30            5.6126     1.9250    -4.4977 C.3     
  31 C31            5.3785     3.3679    -4.8642 C.2     
  32 C32            6.2904     4.0302    -5.5320 C.2     
  33 H33            6.3526     1.8908     0.0904 H       
  34 H34            3.4448     0.9550    -2.9087 H       
  35 H35            2.3215    -0.0714    -1.3139 H       
  36 H36            7.9364    -1.4914     2.4784 H       
  37 H37            5.9966     0.3527     1.0966 H       
  38 H38            2.2853    -1.5201     0.1873 H       
  39 H39            3.0504    -3.6174     1.1741 H       
  40 H40            7.1381    -6.0578     2.2294 H       
  41 H41            6.3166    -8.3441     2.6225 H       
  42 H42            2.3863    -6.8219     3.3010 H       
  43 H43            3.2036    -4.5320     2.9197 H       
  44 H44            6.6214     1.6346    -4.7911 H       
  45 H45            4.8883     1.2964    -5.0158 H       
  46 H46            4.4591     3.8559    -4.5763 H       
  47 H47            6.1226     5.0643    -5.7947 H       
  48 H48            7.2098     3.5422    -5.8199 H       
@<TRIPOS>BOND
   1    1    2 1
   2    1    5 1
   3    1   30 1
   4    2    3 2
   5    2    6 1
   6    3    4 1
   7    3   33 1
   8    4    5 2
   9    4    8 1
  10    5   34 1
  11    6    7 3
  12    8    9 1
  13    8   10 1
  14    8   16 1
  15    9   27 1
  16    9   28 1
  17    9   29 1
  18   10   35 1
  19   11   12 1
  20   11   19 1
  21   11   20 1
  22   12   13 2
  23   13   14 1
  24   13   36 1
  25   14   15 ar
  26   14   19 ar
  27   15   16 ar
  28   15   37 1
  29   16   17 ar
  30   17   18 ar
  31   17   38 1
  32   18   19 ar
  33   18   39 1
  34   20   21 ar
  35   20   25 ar
  36   21   22 ar
  37   21   40 1
  38   22   23 ar
  39   22   41 1
  40   23   24 ar
  41   23   26 1
  42   24   25 ar
  43   24   42 1
  44   25   43 1
  45   30   31 1
  46   30   44 1
  47   30   45 1
  48   31   32 2
  49   31   46 1
  50   32   47 1
  51   32   48 1

#	End of record

