#	Name: ASD02030073
#	Creating user name:	WinNT
#	Creation time:	15. 06. 2019 20:14

#	Modifying user name:	WinNT
#	Modification time:	15. 06. 2019 20:14

#	Program:	/corina/corina34_cracker 3.40 0067  02.08.2006

@<TRIPOS>MOLECULE
ASD02030073
  61   64    0    0    0
SMALL
NO_CHARGES


@<TRIPOS>ATOM
   1 C1             0.6236     0.3378     1.2570 C.ar    
   2 C2             0.0201    -0.0594     0.0766 C.ar    
   3 C3             0.5903     0.2519    -1.1421 C.ar    
   4 C4             1.7790     0.9690    -1.1984 C.ar    
   5 C5             2.4019     1.3780    -0.0143 C.ar    
   6 C6             1.8141     1.0566     1.2257 C.ar    
   7 O7             2.3343     1.2713    -2.3983 O.3     
   8 C8             3.6647     2.1396    -0.0632 C.2     
   9 O9             3.6410     3.3491    -0.1885 O.2     
  10 C10            4.9548     1.4346     0.0397 C.ar    
  11 C11            6.1512     2.1639     0.1129 C.ar    
  12 C12            4.9897     0.0323     0.0706 C.ar    
  13 C13            6.2034    -0.6256     0.1673 C.ar    
  14 C14            7.3909     0.1033     0.2340 C.ar    
  15 C15            7.3604     1.4978     0.2094 C.ar    
  16 O16            6.1227     3.5201     0.0886 O.3     
  17 O17            3.8353    -0.6776     0.0062 O.3     
  18 C18            8.6862    -0.6045     0.3373 C.2     
  19 O19            9.8339     0.0973     0.4019 O.3     
  20 O20            8.7144    -1.8183     0.3639 O.2     
  21 C21           11.0669    -0.6630     0.5020 C.3     
  22 C22           12.2480     0.1454    -0.0737 C.3     
  23 N23           11.9376     1.5768    -0.0451 N.am    
  24 C24           12.5418     2.4148    -0.9107 C.2     
  25 O25           13.3445     1.9827    -1.7153 O.2     
  26 C26           12.2291     3.8570    -0.8819 C.ar    
  27 C27           12.8545     4.7274    -1.7785 C.ar    
  28 C28           11.3027     4.3547     0.0382 C.ar    
  29 C29           11.0133     5.7007     0.0615 C.ar    
  30 C30           11.6415     6.5641    -0.8285 C.ar    
  31 C31           12.5597     6.0721    -1.7488 C.ar    
  32 O32           11.3537     7.8900    -0.8023 O.3     
  33 C33           11.4471    -0.8861     1.9868 C.3     
  34 C34           12.9757    -1.1258     1.9159 C.3     
  35 C35           13.4616    -0.1489     0.8253 C.3     
  36 C36            2.4588     1.4815     2.4859 C.2     
  37 O37            3.5434     2.0276     2.4592 O.2     
  38 O38            1.8436     1.2629     3.6642 O.3     
  39 H39            0.1669     0.0929     2.2045 H       
  40 H40           -0.9039    -0.6176     0.1087 H       
  41 H41            0.1097    -0.0641    -2.0562 H       
  42 H42            1.9823     2.0759    -2.8031 H       
  43 H43            6.2312    -1.7050     0.1915 H       
  44 H44            8.2821     2.0583     0.2609 H       
  45 H45            6.0517     3.9277     0.9626 H       
  46 H46            3.6020    -0.9688    -0.8858 H       
  47 H47           10.9680    -1.6180    -0.0141 H       
  48 H48           12.4541    -0.1714    -1.0960 H       
  49 H49           11.2973     1.9216     0.5968 H       
  50 H50           13.5683     4.3460    -2.4936 H       
  51 H51           10.8139     3.6845     0.7298 H       
  52 H52           10.2971     6.0861     0.7721 H       
  53 H53           13.0457     6.7461    -2.4386 H       
  54 H54           11.9200     8.4039    -0.2105 H       
  55 H55           11.2222    -0.0001     2.5805 H       
  56 H56           10.9371    -1.7615     2.3888 H       
  57 H57           13.4432    -0.8928     2.8726 H       
  58 H58           13.1874    -2.1554     1.6275 H       
  59 H59           14.2574    -0.6090     0.2395 H       
  60 H60           13.8197     0.7733     1.2828 H       
  61 H61            2.3043     1.5584     4.4615 H       
@<TRIPOS>BOND
   1    1    2 ar
   2    1    6 ar
   3    1   39 1
   4    2    3 ar
   5    2   40 1
   6    3    4 ar
   7    3   41 1
   8    4    5 ar
   9    4    7 1
  10    5    6 ar
  11    5    8 1
  12    6   36 1
  13    7   42 1
  14    8    9 2
  15    8   10 1
  16   10   11 ar
  17   10   12 ar
  18   11   16 1
  19   11   15 ar
  20   12   13 ar
  21   12   17 1
  22   13   14 ar
  23   13   43 1
  24   14   15 ar
  25   14   18 1
  26   15   44 1
  27   16   45 1
  28   17   46 1
  29   18   19 1
  30   18   20 2
  31   19   21 1
  32   21   33 1
  33   21   22 1
  34   21   47 1
  35   22   23 1
  36   22   35 1
  37   22   48 1
  38   23   24 am
  39   23   49 1
  40   24   25 2
  41   24   26 1
  42   26   27 ar
  43   26   28 ar
  44   27   31 ar
  45   27   50 1
  46   28   29 ar
  47   28   51 1
  48   29   30 ar
  49   29   52 1
  50   30   31 ar
  51   30   32 1
  52   31   53 1
  53   32   54 1
  54   33   34 1
  55   33   55 1
  56   33   56 1
  57   34   35 1
  58   34   57 1
  59   34   58 1
  60   35   59 1
  61   35   60 1
  62   36   37 2
  63   36   38 1
  64   38   61 1

#	End of record

