#	Name: ASD02198029
#	Creating user name:	WinNT
#	Creation time:	15. 06. 2019 20:18

#	Modifying user name:	WinNT
#	Modification time:	15. 06. 2019 20:18

#	Program:	/corina/corina34_cracker 3.40 0067  02.08.2006

@<TRIPOS>MOLECULE
ASD02198029
  42   45    0    0    0
SMALL
NO_CHARGES


@<TRIPOS>ATOM
   1 N1            -0.0166     1.3718     0.0096 N.pl3   
   2 C2             0.0442     0.0061    -0.1473 C.2     
   3 C3            -1.0407    -0.8404    -0.0588 C.2     
   4 C4            -2.3699    -0.3804     0.2100 C.1     
   5 S5             1.4699    -0.8661    -0.4844 S.3     
   6 C6             0.6081    -2.3963    -0.5013 C.2     
   7 C7            -0.7269    -2.1838    -0.2551 C.2     
   8 C8             1.1978    -3.6554    -0.7375 C.2     
   9 O9             0.5094    -4.6630    -0.7284 O.2     
  10 C10            2.6437    -3.7543    -0.9950 C.2     
  11 N11           -1.6662    -3.2029    -0.2052 N.pl3   
  12 C12            1.1596     2.1272     0.0200 C.ar    
  13 C13            1.2132     3.3406    -0.6539 C.ar    
  14 N14           -3.4243    -0.0155     0.4233 N.1     
  15 C15            2.3765     4.0851    -0.6416 C.ar    
  16 C16            3.4880     3.6230     0.0409 C.ar    
  17 C17            3.4376     2.4140     0.7129 C.ar    
  18 C18            2.2754     1.6685     0.7091 C.ar    
  19 C19            3.3166    -4.9082    -1.2396 C.2     
  20 C20            0.0035     3.8440    -1.3982 C.3     
  21 Cl21           4.9486     4.5611     0.0538 Cl      
  22 O22            3.4989    -2.7118    -1.0293 O.3     
  23 C23            4.7540    -3.1288    -1.2892 C.ar    
  24 C24            4.7153    -4.5277    -1.4360 C.ar    
  25 C25            5.9683    -2.4664    -1.4253 C.ar    
  26 C26            7.1140    -3.1822    -1.6980 C.ar    
  27 C27            7.0710    -4.5635    -1.8398 C.ar    
  28 C28            5.8872    -5.2358    -1.7128 C.ar    
  29 Cl29           8.5288    -5.4410    -2.1843 Cl      
  30 H30           -0.8758     1.8108     0.1090 H       
  31 H31           -1.3923    -4.1224    -0.3480 H       
  32 H32           -2.5971    -2.9962    -0.0274 H       
  33 H33            2.4188     5.0286    -1.1654 H       
  34 H34            4.3068     2.0554     1.2442 H       
  35 H35            2.2366     0.7252     1.2337 H       
  36 H36            2.9029    -5.9049    -1.2805 H       
  37 H37           -0.6080     4.4503    -0.7299 H       
  38 H38            0.3244     4.4491    -2.2462 H       
  39 H39           -0.5810     2.9968    -1.7569 H       
  40 H40            6.0138    -1.3927    -1.3179 H       
  41 H41            8.0554    -2.6636    -1.8030 H       
  42 H42            5.8586    -6.3098    -1.8235 H       
@<TRIPOS>BOND
   1    1    2 1
   2    1   12 1
   3    1   30 1
   4    2    3 2
   5    2    5 1
   6    3    4 1
   7    3    7 1
   8    4   14 3
   9    5    6 1
  10    6    7 2
  11    6    8 1
  12    7   11 1
  13    8    9 2
  14    8   10 1
  15   10   22 1
  16   10   19 2
  17   11   31 1
  18   11   32 1
  19   12   13 ar
  20   12   18 ar
  21   13   15 ar
  22   13   20 1
  23   15   16 ar
  24   15   33 1
  25   16   17 ar
  26   16   21 1
  27   17   18 ar
  28   17   34 1
  29   18   35 1
  30   19   24 1
  31   19   36 1
  32   20   37 1
  33   20   38 1
  34   20   39 1
  35   22   23 1
  36   23   24 ar
  37   23   25 ar
  38   24   28 ar
  39   25   26 ar
  40   25   40 1
  41   26   27 ar
  42   26   41 1
  43   27   28 ar
  44   27   29 1
  45   28   42 1

#	End of record

