#	Name: ASD01209123
#	Creating user name:	WinNT
#	Creation time:	15. 06. 2019 19:11

#	Modifying user name:	WinNT
#	Modification time:	15. 06. 2019 19:11

#	Program:	/corina/corina34_cracker 3.40 0067  02.08.2006

@<TRIPOS>MOLECULE
ASD01209123
  79   82    0    0    0
SMALL
NO_CHARGES


@<TRIPOS>ATOM
   1 C1             0.0603     0.7745    -1.1809 C.ar    
   2 C2            -0.0780    -0.6131    -1.1169 C.ar    
   3 C3            -1.3274    -1.1783    -0.9142 C.ar    
   4 C4            -2.4436    -0.3692    -0.7744 C.ar    
   5 C5            -2.3136     1.0197    -0.8372 C.ar    
   6 C6            -1.0587     1.5918    -1.0350 C.ar    
   7 C7             1.3936     1.3763    -1.3971 C.2     
   8 N8             2.3408     0.6923    -2.0690 N.am    
   9 O9            -1.4580    -2.5297    -0.8530 O.3     
  10 C10           -0.9218    -3.1746     0.2162 C.ar    
  11 C11           -0.9143    -4.5615     0.2591 C.ar    
  12 C12           -3.5051     1.8821    -0.6887 C.2     
  13 N13           -4.7179     1.3278    -0.4927 N.am    
  14 O14           -3.3910     3.0911    -0.7435 O.2     
  15 C15           -5.8374     2.1381    -0.3532 C.2     
  16 S16           -5.8228     3.8468    -0.4097 S.3     
  17 C17           -7.5654     3.8807    -0.1536 C.2     
  18 C18           -7.9931     2.6208    -0.0504 C.2     
  19 N19           -7.0463     1.7086    -0.1668 N.2     
  20 P20          -10.2760     2.0720    -1.4336 P.3     
  21 O21          -10.0861     3.2979    -2.2408 O.2     
  22 C22           -0.3687    -5.2147     1.3472 C.ar    
  23 C23            0.1693    -4.4876     2.3931 C.ar    
  24 C24            0.1626    -3.1055     2.3530 C.ar    
  25 C25           -0.3758    -2.4475     1.2642 C.ar    
  26 S26            0.8639    -5.3239     3.7798 S.o2    
  27 O27            0.7368    -4.3959     4.8484 O.2     
  28 O28            0.1878    -6.5734     3.8102 O.2     
  29 C29            2.6089    -5.5549     3.3414 C.3     
  30 C30           -9.4408     2.2680     0.1749 C.3     
  31 O31            1.6353     2.4880    -0.9690 O.2     
  32 C32            3.6748     1.1990    -2.4230 C.3     
  33 C33            4.3965     0.0816    -3.2054 C.3     
  34 C34            3.2234    -0.7826    -3.7386 C.3     
  35 C35            2.2132    -0.6901    -2.5650 C.3     
  36 O36          -11.8489     1.8248    -1.1951 O.3     
  37 C37          -12.7643     2.8780    -0.8872 C.3     
  38 C38          -13.9101     2.8705    -1.9012 C.3     
  39 C39          -13.3274     2.6693     0.5200 C.3     
  40 O40           -9.6472     0.8124    -2.2148 O.3     
  41 C41          -10.0629     0.4228    -3.5253 C.3     
  42 C42           -8.8997     0.6007    -4.5032 C.3     
  43 C43          -10.4949    -1.0448    -3.5082 C.3     
  44 H44            0.7895    -1.2471    -1.2258 H       
  45 H45           -3.4154    -0.8134    -0.6169 H       
  46 H46           -0.9548     2.6657    -1.0837 H       
  47 H47           -1.3350    -5.1298    -0.5572 H       
  48 H48           -4.8089     0.3631    -0.4489 H       
  49 H49           -8.1802     4.7664    -0.0907 H       
  50 H50           -0.3626    -6.2941     1.3811 H       
  51 H51            0.5831    -2.5400     3.1714 H       
  52 H52           -0.3804    -1.3680     1.2332 H       
  53 H53            3.0741    -4.5828     3.1775 H       
  54 H54            3.1221    -6.0711     4.1528 H       
  55 H55            2.6791    -6.1495     2.4306 H       
  56 H56           -9.5045     1.3342     0.7336 H       
  57 H57           -9.9249     3.0638     0.7410 H       
  58 H58            3.5802     2.0873    -3.0475 H       
  59 H59            4.2330     1.4375    -1.5176 H       
  60 H60            4.9737     0.4994    -4.0303 H       
  61 H61            5.0356    -0.5022    -2.5429 H       
  62 H62            2.8073    -0.3561    -4.6513 H       
  63 H63            3.5393    -1.8134    -3.8996 H       
  64 H64            2.4728    -1.4045    -1.7838 H       
  65 H65            1.1991    -0.8692    -2.9223 H       
  66 H66          -12.2453     3.8354    -0.9326 H       
  67 H67          -14.4831     1.9494    -1.7951 H       
  68 H68          -14.5608     3.7261    -1.7205 H       
  69 H69          -13.5025     2.9307    -2.9104 H       
  70 H70          -13.8464     1.7119     0.5654 H       
  71 H71          -12.5111     2.6746     1.2424 H       
  72 H72          -14.0256     3.4727     0.7548 H       
  73 H73          -10.9008     1.0446    -3.8406 H       
  74 H74           -8.5919     1.6462    -4.5154 H       
  75 H75           -8.0617    -0.0211    -4.1880 H       
  76 H76           -9.2167     0.3036    -5.5029 H       
  77 H77          -11.3786    -1.1561    -2.8799 H       
  78 H78          -10.7279    -1.3668    -4.5231 H       
  79 H79           -9.6861    -1.6570    -3.1094 H       
@<TRIPOS>BOND
   1    1    2 ar
   2    1    7 1
   3    1    6 ar
   4    2    3 ar
   5    2   44 1
   6    3    4 ar
   7    3    9 1
   8    4    5 ar
   9    4   45 1
  10    5    6 ar
  11    5   12 1
  12    6   46 1
  13    7    8 am
  14    7   31 2
  15    8   32 1
  16    8   35 1
  17    9   10 1
  18   10   11 ar
  19   10   25 ar
  20   11   22 ar
  21   11   47 1
  22   12   13 am
  23   12   14 2
  24   13   15 1
  25   13   48 1
  26   15   16 1
  27   15   19 2
  28   16   17 1
  29   17   18 2
  30   17   49 1
  31   18   19 1
  32   18   30 1
  33   20   21 2
  34   20   36 1
  35   20   40 1
  36   20   30 1
  37   22   23 ar
  38   22   50 1
  39   23   24 ar
  40   23   26 1
  41   24   25 ar
  42   24   51 1
  43   25   52 1
  44   26   27 2
  45   26   28 2
  46   26   29 1
  47   29   53 1
  48   29   54 1
  49   29   55 1
  50   30   56 1
  51   30   57 1
  52   32   33 1
  53   32   58 1
  54   32   59 1
  55   33   34 1
  56   33   60 1
  57   33   61 1
  58   34   35 1
  59   34   62 1
  60   34   63 1
  61   35   64 1
  62   35   65 1
  63   36   37 1
  64   37   38 1
  65   37   39 1
  66   37   66 1
  67   38   67 1
  68   38   68 1
  69   38   69 1
  70   39   70 1
  71   39   71 1
  72   39   72 1
  73   40   41 1
  74   41   42 1
  75   41   43 1
  76   41   73 1
  77   42   74 1
  78   42   75 1
  79   42   76 1
  80   43   77 1
  81   43   78 1
  82   43   79 1

#	End of record

