#	Name: ASD00071114
#	Creating user name:	WinNT
#	Creation time:	15. 06. 2019 18:30

#	Modifying user name:	WinNT
#	Modification time:	15. 06. 2019 18:30

#	Program:	/corina/corina34_cracker 3.40 0067  02.08.2006

@<TRIPOS>MOLECULE
ASD00071114
  39   41    0    0    0
SMALL
NO_CHARGES


@<TRIPOS>ATOM
   1 N1            -0.0157     1.3065     0.0092 N.2     
   2 C2             0.0021    -0.0041     0.0020 C.2     
   3 N3             1.1984    -0.6822     0.0321 N.pl3   
   4 C4             2.3733    -0.0687    -0.6053 C.3     
   5 C5             2.3602     1.4064    -0.2838 C.ar    
   6 C6             3.5307     2.1319    -0.2741 C.ar    
   7 C7             3.5023     3.4864     0.0108 C.ar    
   8 C8             2.3009     4.1158     0.2858 C.ar    
   9 C9             1.1229     3.3981     0.2833 C.ar    
  10 C10            1.1441     2.0306     0.0020 C.ar    
  11 N11           -1.1783    -0.7029    -0.0353 N.pl3   
  12 N12            2.2800     5.5654     0.5843 N.pl3   
  13 O13            3.3186     6.2016     0.5876 O.2     
  14 O14            1.2241     6.1221     0.8267 O.2     
  15 C15            1.3003    -1.9891     0.6863 C.3     
  16 C16            1.0038    -3.0762    -0.3143 C.ar    
  17 C17            1.9847    -3.4853    -1.2063 C.ar    
  18 C18            1.7087    -4.4861    -2.1262 C.ar    
  19 C19            0.4582    -5.0732    -2.1521 C.ar    
  20 C20           -0.5176    -4.6636    -1.2626 C.ar    
  21 C21           -0.2429    -3.6702    -0.3405 C.ar    
  22 O22            3.2138    -2.9059    -1.1791 O.3     
  23 C23            4.1742    -3.3771    -2.1266 C.3     
  24 H24            3.2839    -0.5229    -0.2146 H       
  25 H25            2.3235    -0.2111    -1.6848 H       
  26 H26            4.4703     1.6444    -0.4882 H       
  27 H27            4.4211     4.0539     0.0189 H       
  28 H28            0.1870     3.8923     0.4986 H       
  29 H29           -2.0233    -0.2269    -0.0562 H       
  30 H30           -1.1678    -1.6728    -0.0407 H       
  31 H31            2.3086    -2.1214     1.0785 H       
  32 H32            0.5822    -2.0428     1.5046 H       
  33 H33            2.4704    -4.8060    -2.8217 H       
  34 H34            0.2428    -5.8525    -2.8681 H       
  35 H35           -1.4946    -5.1232    -1.2849 H       
  36 H36           -1.0054    -3.3553     0.3565 H       
  37 H37            4.3485    -4.4414    -1.9686 H       
  38 H38            3.7971    -3.2167    -3.1366 H       
  39 H39            5.1095    -2.8326    -1.9973 H       
@<TRIPOS>BOND
   1    1    2 2
   2    1   10 1
   3    2    3 1
   4    2   11 1
   5    3    4 1
   6    3   15 1
   7    4    5 1
   8    4   24 1
   9    4   25 1
  10    5    6 ar
  11    5   10 ar
  12    6    7 ar
  13    6   26 1
  14    7    8 ar
  15    7   27 1
  16    8    9 ar
  17    8   12 1
  18    9   10 ar
  19    9   28 1
  20   11   29 1
  21   11   30 1
  22   12   13 2
  23   12   14 2
  24   15   16 1
  25   15   31 1
  26   15   32 1
  27   16   17 ar
  28   16   21 ar
  29   17   18 ar
  30   17   22 1
  31   18   19 ar
  32   18   33 1
  33   19   20 ar
  34   19   34 1
  35   20   21 ar
  36   20   35 1
  37   21   36 1
  38   22   23 1
  39   23   37 1
  40   23   38 1
  41   23   39 1

#	End of record

