#	Name: ASD03330673
#	Creating user name:	WinNT
#	Creation time:	15. 06. 2019 20:37

#	Modifying user name:	WinNT
#	Modification time:	15. 06. 2019 20:37

#	Program:	/corina/corina34_cracker 3.40 0067  02.08.2006

@<TRIPOS>MOLECULE
ASD03330673
  69   72    0    0    0
SMALL
NO_CHARGES


@<TRIPOS>ATOM
   1 C1            -1.8979     2.7739     0.2546 C.2     
   2 N2            -1.7014     1.4454     0.1108 N.pl3   
   3 C3            -0.6744     3.3696     0.3008 C.2     
   4 N4             0.2554     2.4054     0.1288 N.2     
   5 C5            -0.3501     1.2503    -0.0044 C.2     
   6 C6             0.3160    -0.0498    -0.2399 C.ar    
   7 C7            -0.4124     4.8059     0.5014 C.2     
   8 O8            -1.3402     5.5791     0.6448 O.2     
   9 C9             1.1159     6.6904     0.7254 C.3     
  10 N10            0.8554     5.2626     0.5260 N.am    
  11 C11            1.0358     7.4161    -0.6192 C.3     
  12 C12           -0.3160     7.1271    -1.2750 C.3     
  13 C13            1.1824     8.9225    -0.3953 C.3     
  14 C14            2.1610     6.9243    -1.5319 C.3     
  15 C15            2.4913     6.8728     1.3136 C.2     
  16 N16            2.8327     8.0484     1.8774 N.am    
  17 O17            3.2911     5.9617     1.2796 O.2     
  18 C18            4.1907     8.2484     2.3891 C.3     
  19 C19           -2.7099     0.3807     0.1179 C.3     
  20 C20           -3.8517     0.7041    -0.8487 C.3     
  21 C21           -4.8848     1.5961    -0.1495 C.3     
  22 N22           -4.2368     2.4963     0.7922 N.am    
  23 C23           -3.2409     3.4515     0.2929 C.3     
  24 C24           -4.5468     2.4538     2.1031 C.2     
  25 C25            1.5161    -0.1036    -0.9492 C.ar    
  26 C26           -0.2505    -1.2262     0.2516 C.ar    
  27 C27            0.3755    -2.4354     0.0286 C.ar    
  28 C28            1.5627    -2.4827    -0.6801 C.ar    
  29 C29            2.1322    -1.3191    -1.1655 C.ar    
  30 C30           -3.7925     3.2816     3.0683 C.ar    
  31 O31           -5.4465     1.7349     2.4919 O.2     
  32 C32           -2.3977     3.2364     3.0908 C.ar    
  33 C33           -1.6999     4.0113     3.9940 C.ar    
  34 C34           -2.3797     4.8321     4.8762 C.ar    
  35 C35           -3.7623     4.8814     4.8595 C.ar    
  36 C36           -4.4720     4.1162     3.9572 C.ar    
  37 H37            0.3718     7.1039     1.4062 H       
  38 H38            1.5954     4.6460     0.4117 H       
  39 H39           -1.1175     7.4775    -0.6248 H       
  40 H40           -0.3730     7.6441    -2.2329 H       
  41 H41           -0.4204     6.0539    -1.4345 H       
  42 H42            2.1988     9.1442    -0.0699 H       
  43 H43            0.9757     9.4501    -1.3264 H       
  44 H44            0.4771     9.2464     0.3701 H       
  45 H45            2.0566     5.8511    -1.6914 H       
  46 H46            2.1040     7.4413    -2.4898 H       
  47 H47            3.1240     7.1301    -1.0647 H       
  48 H48            2.1791     8.7621     1.9444 H       
  49 H49            4.9067     8.1286     1.5759 H       
  50 H50            4.2781     9.2521     2.8051 H       
  51 H51            4.3979     7.5134     3.1668 H       
  52 H52           -2.2425    -0.5576    -0.1808 H       
  53 H53           -3.1123     0.2750     1.1253 H       
  54 H54           -3.4532     1.2248    -1.7194 H       
  55 H55           -4.3295    -0.2220    -1.1683 H       
  56 H56           -5.4174     2.1827    -0.8980 H       
  57 H57           -5.5967     0.9683     0.3863 H       
  58 H58           -3.1963     4.3141     0.9578 H       
  59 H59           -3.5159     3.7750    -0.7110 H       
  60 H60            1.9617     0.8041    -1.3286 H       
  61 H61           -1.1769    -1.1904     0.8056 H       
  62 H62           -0.0620    -3.3468     0.4085 H       
  63 H63            2.0492    -3.4316    -0.8514 H       
  64 H64            3.0590    -1.3626    -1.7184 H       
  65 H65           -1.8658     2.5958     2.4029 H       
  66 H66           -0.6206     3.9770     4.0126 H       
  67 H67           -1.8287     5.4368     5.5813 H       
  68 H68           -4.2870     5.5239     5.5511 H       
  69 H69           -5.5512     4.1557     3.9449 H       
@<TRIPOS>BOND
   1    1    2 1
   2    1    3 2
   3    1   23 1
   4    2   19 1
   5    2    5 1
   6    3    4 1
   7    3    7 1
   8    4    5 2
   9    5    6 1
  10    6   25 ar
  11    6   26 ar
  12    7    8 2
  13    7   10 am
  14    9   10 1
  15    9   11 1
  16    9   15 1
  17    9   37 1
  18   10   38 1
  19   11   12 1
  20   11   13 1
  21   11   14 1
  22   12   39 1
  23   12   40 1
  24   12   41 1
  25   13   42 1
  26   13   43 1
  27   13   44 1
  28   14   45 1
  29   14   46 1
  30   14   47 1
  31   15   16 am
  32   15   17 2
  33   16   18 1
  34   16   48 1
  35   18   49 1
  36   18   50 1
  37   18   51 1
  38   19   20 1
  39   19   52 1
  40   19   53 1
  41   20   21 1
  42   20   54 1
  43   20   55 1
  44   21   22 1
  45   21   56 1
  46   21   57 1
  47   22   23 1
  48   22   24 am
  49   23   58 1
  50   23   59 1
  51   24   30 1
  52   24   31 2
  53   25   29 ar
  54   25   60 1
  55   26   27 ar
  56   26   61 1
  57   27   28 ar
  58   27   62 1
  59   28   29 ar
  60   28   63 1
  61   29   64 1
  62   30   32 ar
  63   30   36 ar
  64   32   33 ar
  65   32   65 1
  66   33   34 ar
  67   33   66 1
  68   34   35 ar
  69   34   67 1
  70   35   36 ar
  71   35   68 1
  72   36   69 1

#	End of record

