#	Name: ASD04882106
#	Creating user name:	WinNT
#	Creation time:	15. 06. 2019 20:54

#	Modifying user name:	WinNT
#	Modification time:	15. 06. 2019 20:54

#	Program:	/corina/corina34_cracker 3.40 0067  02.08.2006

@<TRIPOS>MOLECULE
ASD04882106
  73   77    0    0    0
SMALL
NO_CHARGES


@<TRIPOS>ATOM
   1 C1             0.4964     1.4678    -0.4574 C.2     
   2 S2             0.5964    -0.1656    -0.9513 S.3     
   3 C3             2.2029     0.0586    -1.4852 C.2     
   4 N4             2.5802     1.2732    -1.2856 N.2     
   5 C5             1.6730     2.0776    -0.7239 C.2     
   6 C6             1.9310     3.4956    -0.4231 C.2     
   7 O7             1.0628     4.1763     0.0896 O.2     
   8 N8             3.1289     4.0395    -0.7159 N.am    
   9 C9             3.3388     5.4125    -0.5314 C.ar    
  10 C10            4.5995     5.8827    -0.1519 C.ar    
  11 C11            4.8093     7.2443     0.0310 C.ar    
  12 C12            3.7763     8.1354    -0.1604 C.ar    
  13 C13            2.5137     7.6722    -0.5396 C.ar    
  14 C14            2.3015     6.3034    -0.7298 C.ar    
  15 N15            5.6463     4.9854     0.0435 N.3     
  16 C16            5.3885     4.1198     1.2027 C.3     
  17 C17            6.5209     3.0987     1.3354 C.3     
  18 N18            7.8002     3.8064     1.4844 N.3     
  19 C19            8.0580     4.6721     0.3252 C.3     
  20 C20            6.9256     5.6931     0.1925 C.3     
  21 C21            8.8502     2.9064     1.6804 C.ar    
  22 C22            8.9123     2.1521     2.8455 C.ar    
  23 C23           10.9300     1.1232     2.0685 C.ar    
  24 C24            9.8314     2.7593     0.7084 C.ar    
  25 C25            9.9515     1.2630     3.0358 C.ar    
  26 C26           10.8681     1.8681     0.9053 C.ar    
  27 C27            7.8471     2.3045     3.9005 C.3     
  28 C28            1.4076     8.6266    -0.7446 C.2     
  29 N29            1.6145     9.9464    -0.5659 N.am    
  30 O30            0.3092     8.2226    -1.0746 O.2     
  31 C31            0.5161    10.8942    -0.7694 C.3     
  32 C32            1.0138    12.3163    -0.5038 C.3     
  33 C33           -0.1333    13.3062    -0.7163 C.3     
  34 N34            0.3433    14.6679    -0.4620 N.am    
  35 C35            0.8738    15.4731    -1.3985 C.2     
  36 C36            1.2649    16.7989    -0.7838 C.3     
  37 C37            1.2759    16.5230     0.7376 C.3     
  38 C38            0.2971    15.3305     0.8468 C.3     
  39 O39            1.0182    15.1793    -2.5663 O.2     
  40 Br40           3.2780    -1.2895    -2.2614 Br      
  41 H41           -0.3673     1.9371    -0.0100 H       
  42 H42            3.8457     3.4804    -1.0543 H       
  43 H43            5.7843     7.6046     0.3242 H       
  44 H44            3.9423     9.1928    -0.0167 H       
  45 H45            1.3279     5.9428    -1.0273 H       
  46 H46            5.3389     4.7272     2.1064 H       
  47 H47            4.4422     3.5972     1.0630 H       
  48 H48            6.3466     2.4741     2.2115 H       
  49 H49            6.5530     2.4733     0.4432 H       
  50 H50            9.0043     5.1946     0.4648 H       
  51 H51            8.1076     4.0646    -0.5785 H       
  52 H52            7.0999     6.3177    -0.6836 H       
  53 H53            6.8935     6.3185     1.0847 H       
  54 H54           11.7419     0.4273     2.2200 H       
  55 H55            9.7836     3.3409    -0.2003 H       
  56 H56           10.0004     0.6763     3.9413 H       
  57 H57           11.6339     1.7565     0.1519 H       
  58 H58            7.0746     1.5507     3.7484 H       
  59 H59            8.2918     2.1751     4.8872 H       
  60 H60            7.4044     3.2980     3.8290 H       
  61 H61            2.4907    10.2687    -0.3026 H       
  62 H62            0.1581    10.8204    -1.7963 H       
  63 H63           -0.2977    10.6599    -0.0832 H       
  64 H64            1.3719    12.3901     0.5231 H       
  65 H65            1.8277    12.5506    -1.1900 H       
  66 H66           -0.4913    13.2324    -1.7432 H       
  67 H67           -0.9471    13.0720    -0.0300 H       
  68 H68            2.2558    17.0997    -1.1241 H       
  69 H69            0.5282    17.5645    -1.0273 H       
  70 H70            2.2741    16.2457     1.0766 H       
  71 H71            0.9020    17.3832     1.2928 H       
  72 H72           -0.7123    15.6854     1.0545 H       
  73 H73            0.6251    14.6452     1.6283 H       
@<TRIPOS>BOND
   1    1    2 1
   2    1    5 2
   3    1   41 1
   4    2    3 1
   5    3    4 2
   6    3   40 1
   7    4    5 1
   8    5    6 1
   9    6    7 2
  10    6    8 am
  11    8    9 1
  12    8   42 1
  13    9   10 ar
  14    9   14 ar
  15   10   11 ar
  16   10   15 1
  17   11   12 ar
  18   11   43 1
  19   12   13 ar
  20   12   44 1
  21   13   14 ar
  22   13   28 1
  23   14   45 1
  24   15   16 1
  25   15   20 1
  26   16   17 1
  27   16   46 1
  28   16   47 1
  29   17   18 1
  30   17   48 1
  31   17   49 1
  32   18   19 1
  33   18   21 1
  34   19   20 1
  35   19   50 1
  36   19   51 1
  37   20   52 1
  38   20   53 1
  39   21   22 ar
  40   21   24 ar
  41   22   25 ar
  42   22   27 1
  43   23   25 ar
  44   23   26 ar
  45   23   54 1
  46   24   26 ar
  47   24   55 1
  48   25   56 1
  49   26   57 1
  50   27   58 1
  51   27   59 1
  52   27   60 1
  53   28   29 am
  54   28   30 2
  55   29   31 1
  56   29   61 1
  57   31   32 1
  58   31   62 1
  59   31   63 1
  60   32   33 1
  61   32   64 1
  62   32   65 1
  63   33   34 1
  64   33   66 1
  65   33   67 1
  66   34   35 am
  67   34   38 1
  68   35   36 1
  69   35   39 2
  70   36   37 1
  71   36   68 1
  72   36   69 1
  73   37   38 1
  74   37   70 1
  75   37   71 1
  76   38   72 1
  77   38   73 1

#	End of record

