#	Name: ASD01814559
#	Creating user name:	WinNT
#	Creation time:	15. 06. 2019 19:32

#	Modifying user name:	WinNT
#	Modification time:	15. 06. 2019 19:32

#	Program:	/corina/corina34_cracker 3.40 0067  02.08.2006

@<TRIPOS>MOLECULE
ASD01814559
  62   65    0    0    0
SMALL
NO_CHARGES


@<TRIPOS>ATOM
   1 C1            -0.0168     1.3883     0.0097 C.ar    
   2 C2             0.0021    -0.0041     0.0020 C.ar    
   3 C3             1.1794    -0.6892    -0.0129 C.ar    
   4 C4             2.3943     0.0146    -0.0206 C.ar    
   5 C5             2.3745     1.4313    -0.0129 C.ar    
   6 C6             1.1422     2.1040     0.0025 C.ar    
   7 C7             3.6271    -0.6666    -0.0355 C.ar    
   8 C8             4.7909     0.0293    -0.0419 C.ar    
   9 C9             4.7922     1.4365    -0.0340 C.ar    
  10 C10            3.5920     2.1419    -0.0202 C.ar    
  11 O11            3.5941     3.4973    -0.0126 O.3     
  12 C12            6.0718     2.1680    -0.0409 C.2     
  13 O13            6.0770     3.3841    -0.0341 O.2     
  14 N14            7.2360     1.4891    -0.0547 N.am    
  15 C15            3.6527    -2.1734    -0.0437 C.3     
  16 C16            3.5245    -2.6702    -1.4606 C.ar    
  17 C17            4.6551    -2.8808    -2.2355 C.ar    
  18 C18            4.4899    -3.3383    -3.5334 C.ar    
  19 C19            3.2113    -3.5681    -4.0094 C.ar    
  20 N20            2.1581    -3.3565    -3.2427 N.ar    
  21 C21            2.2792    -2.9270    -2.0017 C.ar    
  22 Cl22           2.9899    -4.1406    -5.6332 Cl      
  23 C23            8.5078     2.2162    -0.0615 C.3     
  24 C24            8.9005     2.5704     1.3742 C.3     
  25 C25            9.5941     1.3378    -0.6855 C.3     
  26 C26           10.9224     2.0971    -0.6926 C.3     
  27 C27           11.3151     2.4512     0.7431 C.3     
  28 C28           10.2288     3.3297     1.3670 C.3     
  29 O29            9.2273     1.0070    -2.0264 O.3     
  30 C30            3.5852     4.1157    -1.2096 C.2     
  31 N31            3.5867     5.4620    -1.2725 N.am    
  32 C32            3.5770     6.1345    -2.5740 C.3     
  33 C33            3.5810     7.6501    -2.3650 C.3     
  34 O34            3.5758     3.4597    -2.2323 O.2     
  35 H35           -0.9635     1.9080     0.0170 H       
  36 H36           -0.9304    -0.5488     0.0083 H       
  37 H37            1.1783    -1.7692    -0.0183 H       
  38 H38            1.1133     3.1836     0.0082 H       
  39 H39            5.7301    -0.5040    -0.0530 H       
  40 H40            7.2318     0.5192    -0.0601 H       
  41 H41            4.5940    -2.5231     0.3802 H       
  42 H42            2.8226    -2.5541     0.5514 H       
  43 H43            5.6411    -2.6924    -1.8371 H       
  44 H44            5.3482    -3.5128    -4.1652 H       
  45 H45            1.3941    -2.7655    -1.4042 H       
  46 H46            8.4005     3.1306    -0.6450 H       
  47 H47            8.1267     3.1962     1.8187 H       
  48 H48            9.0079     1.6559     1.9576 H       
  49 H49            9.7015     0.4233    -0.1021 H       
  50 H50           11.6963     1.4713    -1.1371 H       
  51 H51           10.8150     3.0115    -1.2760 H       
  52 H52           11.4224     1.5368     1.3265 H       
  53 H53           12.2614     2.9922     0.7380 H       
  54 H54           10.1214     4.2441     0.7836 H       
  55 H55           10.5086     3.5820     2.3899 H       
  56 H56            9.8718     0.4503    -2.4845 H       
  57 H57            3.5942     5.9857    -0.4561 H       
  58 H58            4.4620     5.8434    -3.1399 H       
  59 H59            2.6821     5.8461    -3.1254 H       
  60 H60            3.5738     8.1504    -3.3334 H       
  61 H61            2.6961     7.9412    -1.7991 H       
  62 H62            4.4760     7.9385    -1.8137 H       
@<TRIPOS>BOND
   1    1    2 ar
   2    1    6 ar
   3    1   35 1
   4    2    3 ar
   5    2   36 1
   6    3    4 ar
   7    3   37 1
   8    4    5 ar
   9    4    7 ar
  10    5    6 ar
  11    5   10 ar
  12    6   38 1
  13    7    8 ar
  14    7   15 1
  15    8    9 ar
  16    8   39 1
  17    9   10 ar
  18    9   12 1
  19   10   11 1
  20   11   30 1
  21   12   13 2
  22   12   14 am
  23   14   23 1
  24   14   40 1
  25   15   16 1
  26   15   41 1
  27   15   42 1
  28   16   17 ar
  29   16   21 ar
  30   17   18 ar
  31   17   43 1
  32   18   19 ar
  33   18   44 1
  34   19   20 ar
  35   19   22 1
  36   20   21 ar
  37   21   45 1
  38   23   24 1
  39   23   25 1
  40   23   46 1
  41   24   28 1
  42   24   47 1
  43   24   48 1
  44   25   26 1
  45   25   29 1
  46   25   49 1
  47   26   27 1
  48   26   50 1
  49   26   51 1
  50   27   28 1
  51   27   52 1
  52   27   53 1
  53   28   54 1
  54   28   55 1
  55   29   56 1
  56   30   31 am
  57   30   34 2
  58   31   32 1
  59   31   57 1
  60   32   33 1
  61   32   58 1
  62   32   59 1
  63   33   60 1
  64   33   61 1
  65   33   62 1

#	End of record

