#	Name: ASD02038065
#	Creating user name:	WinNT
#	Creation time:	15. 06. 2019 20:16

#	Modifying user name:	WinNT
#	Modification time:	15. 06. 2019 20:16

#	Program:	/corina/corina34_cracker 3.40 0067  02.08.2006

@<TRIPOS>MOLECULE
ASD02038065
  44   46    0    0    0
SMALL
NO_CHARGES


@<TRIPOS>ATOM
   1 N1            -1.0077     1.3064    -0.4690 N.am    
   2 N2             0.0856     3.3674    -0.3889 N.am    
   3 C3             0.1311     2.0205    -0.3712 C.2     
   4 C4             0.0068     6.7769    -0.6301 C.3     
   5 O5            -0.7563     7.5177    -1.5845 O.3     
   6 C6            -0.9754     8.8320    -1.3134 C.ar    
   7 C7            -1.7085     9.6095    -2.1979 C.ar    
   8 C8            -0.4705     9.3934    -0.1497 C.ar    
   9 C9            -0.6930    10.7280     0.1264 C.ar    
  10 C10           -1.4219    11.5081    -0.7611 C.ar    
  11 C11           -1.9310    10.9445    -1.9233 C.ar    
  12 O12            1.1989     1.4501    -0.2669 O.2     
  13 N13           -1.6485    12.8625    -0.4812 N.am    
  14 C14           -1.0907    -0.0574    -0.5680 C.2     
  15 C15           -0.7158    13.5802     0.1757 C.2     
  16 N16           -0.9750    14.8527     0.5361 N.am    
  17 O17            0.3595    13.0795     0.4431 O.2     
  18 C18            0.0389    15.6327     1.2502 C.3     
  19 C19            1.0525     4.4620    -0.2165 C.3     
  20 C20            0.1475     5.3286    -1.1031 C.3     
  21 C21           -0.9517     4.3892    -0.5958 C.3     
  22 C22           -2.3919    -0.3941    -0.6458 C.2     
  23 C23           -3.1445     0.7988    -0.5936 C.2     
  24 C24           -2.2768     1.8220    -0.4803 C.2     
  25 H25            0.9957     7.2240    -0.5297 H       
  26 H26           -0.5004     6.7963     0.3345 H       
  27 H27           -2.1051     9.1708    -3.1015 H       
  28 H28            0.0964     8.7865     0.5407 H       
  29 H29           -0.3005    11.1648     1.0328 H       
  30 H30           -2.4980    11.5508    -2.6142 H       
  31 H31           -2.4766    13.2835    -0.7603 H       
  32 H32           -0.2568    -0.7436    -0.5818 H       
  33 H33           -1.8328    15.2521     0.3228 H       
  34 H34            0.2831    15.1374     2.1899 H       
  35 H35            0.9363    15.7105     0.6365 H       
  36 H36           -0.3485    16.6307     1.4555 H       
  37 H37            1.1248     4.8196     0.8107 H       
  38 H38            2.0261     4.2553    -0.6609 H       
  39 H39            0.3496     5.2393    -2.1705 H       
  40 H40           -1.6811     4.1217    -1.3604 H       
  41 H41           -1.4162     4.7253     0.3313 H       
  42 H42           -2.7879    -1.3951    -0.7326 H       
  43 H43           -4.2210     0.8764    -0.6330 H       
  44 H44           -2.5362     2.8684    -0.4158 H       
@<TRIPOS>BOND
   1    1   14 1
   2    1    3 am
   3    1   24 1
   4    2    3 am
   5    2   19 1
   6    2   21 1
   7    3   12 2
   8    4    5 1
   9    4   20 1
  10    4   25 1
  11    4   26 1
  12    5    6 1
  13    6    7 ar
  14    6    8 ar
  15    7   11 ar
  16    7   27 1
  17    8    9 ar
  18    8   28 1
  19    9   10 ar
  20    9   29 1
  21   10   11 ar
  22   10   13 1
  23   11   30 1
  24   13   15 am
  25   13   31 1
  26   14   22 2
  27   14   32 1
  28   15   16 am
  29   15   17 2
  30   16   18 1
  31   16   33 1
  32   18   34 1
  33   18   35 1
  34   18   36 1
  35   19   20 1
  36   19   37 1
  37   19   38 1
  38   20   21 1
  39   20   39 1
  40   21   40 1
  41   21   41 1
  42   22   23 1
  43   22   42 1
  44   23   24 2
  45   23   43 1
  46   24   44 1

#	End of record

