#	Name: ASD02030373
#	Creating user name:	WinNT
#	Creation time:	15. 06. 2019 20:15

#	Modifying user name:	WinNT
#	Modification time:	15. 06. 2019 20:15

#	Program:	/corina/corina34_cracker 3.40 0067  02.08.2006

@<TRIPOS>MOLECULE
ASD02030373
  38   41    0    0    0
SMALL
NO_CHARGES


@<TRIPOS>ATOM
   1 C1            -0.0083     1.3507    -0.2360 C.2     
   2 N2             0.0060    -0.0090    -0.1154 N.am    
   3 N3             2.3589     0.0411    -0.0890 N.2     
   4 C4             2.3860     1.3631    -0.2068 C.2     
   5 C5             1.1959     2.0549    -0.2832 C.2     
   6 C6            -1.0812    -0.8449    -0.0555 C.2     
   7 C7            -0.8833    -2.1463     0.0619 C.2     
   8 S8             0.8760    -2.3556     0.1028 S.3     
   9 C9             1.2193    -0.6233    -0.0456 C.2     
  10 C10           -1.9326    -3.2250     0.1436 C.3     
  11 O11           -1.0706     1.9483    -0.3075 O.2     
  12 C12           -2.4795    -0.2870    -0.1221 C.3     
  13 C13           -2.8348     0.5869    -1.3268 C.3     
  14 C14           -3.4050    -0.8284    -1.2136 C.3     
  15 C15           -3.7577     1.7114    -1.1021 C.1     
  16 N16           -4.4700     2.5792    -0.9287 N.1     
  17 H17           -2.0572     0.7582    -2.0711 H       
  18 H18           -2.9289    -0.0289     0.8368 H       
  19 C19            3.7007     2.0983    -0.2541 C.3     
  20 N20            4.1663     2.3545     1.1111 N.pl3   
  21 C21            4.4633     3.3544     3.0432 C.2     
  22 N22            3.8704     3.4846     1.8842 N.2     
  23 C23            4.9514     1.5407     1.8482 C.2     
  24 C24            5.1523     2.1372     3.0477 C.2     
  25 C25            4.4105     4.3438     4.1787 C.3     
  26 Cl26           5.5886     0.0050     1.3489 Cl      
  27 F27            3.5323     5.3826     3.8516 F       
  28 F28            3.9613     3.7008     5.3371 F       
  29 F29            5.6888     4.8667     4.4014 F       
  30 F30           -3.1979    -2.6376     0.2493 F       
  31 F31           -1.8800    -4.0150    -1.0097 F       
  32 F32           -1.6938    -4.0235     1.2672 F       
  33 H33            1.1954     3.1307    -0.3789 H       
  34 H34           -3.0024    -1.5882    -1.8835 H       
  35 H35           -4.4635    -0.9268    -0.9728 H       
  36 H36            4.4372     1.4921    -0.7815 H       
  37 H37            3.5686     3.0457    -0.7768 H       
  38 H38            5.7404     1.7428     3.8631 H       
@<TRIPOS>BOND
   1    1    2 am
   2    1    5 1
   3    1   11 2
   4    2    6 1
   5    2    9 1
   6    3    4 1
   7    3    9 2
   8    4    5 2
   9    4   19 1
  10    5   33 1
  11    6    7 2
  12    6   12 1
  13    7    8 1
  14    7   10 1
  15    8    9 1
  16   10   30 1
  17   10   31 1
  18   10   32 1
  19   12   13 1
  20   12   18 1
  21   12   14 1
  22   13   14 1
  23   13   15 1
  24   13   17 1
  25   14   34 1
  26   14   35 1
  27   15   16 3
  28   19   20 1
  29   19   36 1
  30   19   37 1
  31   20   23 1
  32   20   22 1
  33   21   22 2
  34   21   24 1
  35   21   25 1
  36   23   24 2
  37   23   26 1
  38   24   38 1
  39   25   27 1
  40   25   28 1
  41   25   29 1

#	End of record

