#	Name: ASD02408263
#	Creating user name:	WinNT
#	Creation time:	15. 06. 2019 20:21

#	Modifying user name:	WinNT
#	Modification time:	15. 06. 2019 20:21

#	Program:	/corina/corina34_cracker 3.40 0067  02.08.2006

@<TRIPOS>MOLECULE
ASD02408263
  45   48    0    0    0
SMALL
NO_CHARGES


@<TRIPOS>ATOM
   1 C1             0.0211     1.5849     0.2436 C.2     
   2 C2             0.1659     0.2416     0.0787 C.2     
   3 N3            -0.9135    -0.5522    -0.1093 N.pl3   
   4 N4            -2.1156    -0.1089    -0.1445 N.2     
   5 C5            -2.3965     1.1684     0.0012 C.2     
   6 C6            -1.2945     2.1160     0.2166 C.2     
   7 C7            -0.7072    -1.9257    -0.2739 C.ar    
   8 C8            -1.7922    -2.7926    -0.3167 C.ar    
   9 C9            -1.5849    -4.1479    -0.4798 C.ar    
  10 C10           -0.2990    -4.6429    -0.6005 C.ar    
  11 C11            0.7830    -3.7830    -0.5583 C.ar    
  12 C12            0.5826    -2.4255    -0.4006 C.ar    
  13 C13           -3.7980     1.6413    -0.0461 C.2     
  14 C14           -4.3707     2.4450    -1.0148 C.2     
  15 O15           -5.6609     2.6356    -0.6792 O.3     
  16 C16           -5.9336     1.9861     0.4640 C.2     
  17 C17           -4.8264     1.3559     0.8911 C.2     
  18 C18           -3.6903     2.9952    -2.2025 C.ar    
  19 O19           -1.5016     3.3127     0.3581 O.2     
  20 C20           -4.3450     3.9186    -3.0216 C.ar    
  21 C21           -2.3861     2.5997    -2.5104 C.ar    
  22 C22           -1.7563     3.1183    -3.6224 C.ar    
  23 C23           -2.4128     4.0285    -4.4321 C.ar    
  24 C24           -3.7027     4.4287    -4.1303 C.ar    
  25 O25            1.1006     2.3902     0.4336 O.3     
  26 C26            2.3838     1.7617     0.4513 C.3     
  27 C27           -2.7610    -5.0890    -0.5259 C.3     
  28 F28           -3.2619    -5.1459    -1.8310 F       
  29 F29           -2.3523    -6.3661    -0.1272 F       
  30 F30           -3.7608    -4.6286     0.3376 F       
  31 H31            1.1533    -0.1954     0.0977 H       
  32 H32           -2.7965    -2.4068    -0.2222 H       
  33 H33           -0.1397    -5.7035    -0.7276 H       
  34 H34            1.7858    -4.1728    -0.6528 H       
  35 H35            1.4281    -1.7544    -0.3681 H       
  36 H36           -6.8929     1.9694     0.9598 H       
  37 H37           -4.7343     0.7518     1.7816 H       
  38 H38           -5.3516     4.2318    -2.7872 H       
  39 H39           -1.8723     1.8900    -1.8790 H       
  40 H40           -0.7482     2.8135    -3.8617 H       
  41 H41           -1.9146     4.4315    -5.3014 H       
  42 H42           -4.2089     5.1394    -4.7667 H       
  43 H43            2.4188     1.0298     1.2583 H       
  44 H44            2.5562     1.2607    -0.5012 H       
  45 H45            3.1553     2.5151     0.6104 H       
@<TRIPOS>BOND
   1    1    2 2
   2    1   25 1
   3    1    6 1
   4    2    3 1
   5    2   31 1
   6    3    4 1
   7    3    7 1
   8    4    5 2
   9    5    6 1
  10    5   13 1
  11    6   19 2
  12    7    8 ar
  13    7   12 ar
  14    8    9 ar
  15    8   32 1
  16    9   10 ar
  17    9   27 1
  18   10   11 ar
  19   10   33 1
  20   11   12 ar
  21   11   34 1
  22   12   35 1
  23   13   14 2
  24   13   17 1
  25   14   15 1
  26   14   18 1
  27   15   16 1
  28   16   17 2
  29   16   36 1
  30   17   37 1
  31   18   20 ar
  32   18   21 ar
  33   20   24 ar
  34   20   38 1
  35   21   22 ar
  36   21   39 1
  37   22   23 ar
  38   22   40 1
  39   23   24 ar
  40   23   41 1
  41   24   42 1
  42   25   26 1
  43   26   43 1
  44   26   44 1
  45   26   45 1
  46   27   28 1
  47   27   29 1
  48   27   30 1

#	End of record

