#	Name: ASD00069189
#	Creating user name:	WinNT
#	Creation time:	15. 06. 2019 18:29

#	Modifying user name:	WinNT
#	Modification time:	15. 06. 2019 18:29

#	Program:	/corina/corina34_cracker 3.40 0067  02.08.2006

@<TRIPOS>MOLECULE
ASD00069189
  68   71    0    0    0
SMALL
NO_CHARGES


@<TRIPOS>ATOM
   1 N1            -0.0430     1.4336    -0.0045 N.3     
   2 C2            -0.0432    -0.0348    -0.0128 C.3     
   3 C3             0.6597    -0.5535     1.2438 C.3     
   4 C4             2.0965    -0.0249     1.2739 C.3     
   5 C5             2.0699     1.5055     1.2329 C.3     
   6 C6             1.3261     1.9645    -0.0233 C.3     
   7 C7             2.7752    -0.4831     2.5390 C.2     
   8 O8             2.1704    -1.1654     3.3387 O.2     
   9 N9             4.0544    -0.1346     2.7816 N.am    
  10 C10           -0.7931     1.9418    -1.0728 C.ar    
  11 C11           -0.4376     1.6378    -2.3806 C.ar    
  12 C12           -1.1807     2.1415    -3.4336 C.ar    
  13 C13           -2.2776     2.9474    -3.1877 C.ar    
  14 C14           -2.6378     3.2543    -1.8893 C.ar    
  15 C15           -1.9022     2.7493    -0.8265 C.ar    
  16 N16           -2.2700     3.0546     0.4898 N.am    
  17 C17           -2.8029     4.2584     0.7787 C.2     
  18 O18           -2.8697     5.1160    -0.0811 O.2     
  19 C19           -3.3047     4.5356     2.1369 C.2     
  20 N20           -3.2881     3.6953     3.1476 N.2     
  21 C21           -3.8241     4.2918     4.2198 C.2     
  22 C22           -4.1902     5.5590     3.8599 C.2     
  23 N23           -3.8601     5.7121     2.5581 N.pl3   
  24 C24           -3.7519     1.8470     7.0774 C.ar    
  25 C25           -3.5777     2.3731     5.8140 C.ar    
  26 C26           -3.9919     3.6842     5.5625 C.ar    
  27 C27           -4.5682     4.4075     6.6111 C.ar    
  28 C28           -4.7049     3.8045     7.8439 C.ar    
  29 N29           -4.3005     2.5637     8.0397 N.ar    
  30 C30           -3.3155     0.4326     7.3604 C.3     
  31 F31            0.6335     0.8513    -2.6244 F       
  32 C32            4.7142    -0.5800     4.0114 C.3     
  33 C33            6.1496    -0.0513     4.0403 C.3     
  34 N34            6.8113    -0.4979     5.2735 N.3     
  35 C35            8.1947    -0.0078     5.3358 C.3     
  36 C36            8.8495    -0.4922     6.6311 C.3     
  37 H37           -1.0709    -0.3977    -0.0300 H       
  38 H38            0.4832    -0.3931    -0.8974 H       
  39 H39            0.1259    -0.2070     2.1287 H       
  40 H40            0.6731    -1.6433     1.2297 H       
  41 H41            2.6419    -0.4030     0.4093 H       
  42 H42            1.5582     1.8844     2.1176 H       
  43 H43            3.0908     1.8868     1.2110 H       
  44 H44            1.8460     1.5968    -0.9079 H       
  45 H45            1.2929     3.0537    -0.0482 H       
  46 H46            4.5381     0.4111     2.1420 H       
  47 H47           -0.9033     1.9050    -4.4502 H       
  48 H48           -2.8542     3.3383    -4.0130 H       
  49 H49           -3.4948     3.8842    -1.7016 H       
  50 H50           -2.1413     2.3997     1.1937 H       
  51 H51           -4.6521     6.2992     4.4965 H       
  52 H52           -3.9942     6.5088     2.0213 H       
  53 H53           -3.1275     1.7808     5.0311 H       
  54 H54           -4.9010     5.4235     6.4581 H       
  55 H55           -5.1485     4.3554     8.6601 H       
  56 H56           -2.2795     0.4329     7.6992 H       
  57 H57           -3.9511     0.0044     8.1355 H       
  58 H58           -3.4003    -0.1626     6.4512 H       
  59 H59            4.1691    -0.1987     4.8749 H       
  60 H60            4.7277    -1.6695     4.0424 H       
  61 H61            6.6948    -0.4326     3.1769 H       
  62 H62            6.1362     1.0382     4.0093 H       
  63 H63            6.2892    -0.2116     6.0881 H       
  64 H64            8.7540    -0.3888     4.4814 H       
  65 H65            8.1954     1.0820     5.3138 H       
  66 H66            8.2901    -0.1111     7.4855 H       
  67 H67            8.8487    -1.5819     6.6531 H       
  68 H68            9.8760    -0.1285     6.6773 H       
@<TRIPOS>BOND
   1    1    2 1
   2    1    6 1
   3    1   10 1
   4    2    3 1
   5    2   37 1
   6    2   38 1
   7    3    4 1
   8    3   39 1
   9    3   40 1
  10    4    5 1
  11    4    7 1
  12    4   41 1
  13    5    6 1
  14    5   42 1
  15    5   43 1
  16    6   44 1
  17    6   45 1
  18    7    8 2
  19    7    9 am
  20    9   32 1
  21    9   46 1
  22   10   11 ar
  23   10   15 ar
  24   11   12 ar
  25   11   31 1
  26   12   13 ar
  27   12   47 1
  28   13   14 ar
  29   13   48 1
  30   14   15 ar
  31   14   49 1
  32   15   16 1
  33   16   17 am
  34   16   50 1
  35   17   18 2
  36   17   19 1
  37   19   20 2
  38   19   23 1
  39   20   21 1
  40   21   22 2
  41   21   26 1
  42   22   23 1
  43   22   51 1
  44   23   52 1
  45   24   25 ar
  46   24   29 ar
  47   24   30 1
  48   25   26 ar
  49   25   53 1
  50   26   27 ar
  51   27   28 ar
  52   27   54 1
  53   28   29 ar
  54   28   55 1
  55   30   56 1
  56   30   57 1
  57   30   58 1
  58   32   33 1
  59   32   59 1
  60   32   60 1
  61   33   34 1
  62   33   61 1
  63   33   62 1
  64   34   35 1
  65   34   63 1
  66   35   36 1
  67   35   64 1
  68   35   65 1
  69   36   66 1
  70   36   67 1
  71   36   68 1

#	End of record

