#	Name: ASD07930710
#	Creating user name:	WinNT
#	Creation time:	15. 06. 2019 21:13

#	Modifying user name:	WinNT
#	Modification time:	15. 06. 2019 21:13

#	Program:	/corina/corina34_cracker 3.40 0067  02.08.2006

@<TRIPOS>MOLECULE
ASD07930710
  39   41    0    0    0
SMALL
NO_CHARGES


@<TRIPOS>ATOM
   1 C1            -0.0178     1.4608     0.0101 C.3     
   2 N2             0.8031    -0.4153    -2.1619 N.2     
   3 N3            -0.8796    -1.7833    -1.2911 N.pl3   
   4 C4            -0.9005    -2.8248    -0.2586 C.3     
   5 C5            -1.2102    -2.1834     1.1010 C.3     
   6 S6             0.0275    -0.8859     1.4156 S.o2    
   7 N7             0.0021    -0.0041     0.0020 N.am    
   8 C8             0.0002    -0.7257    -1.1832 C.2     
   9 C9             0.4646    -3.5132    -0.1997 C.3     
  10 O10           -0.4323     0.0192     2.4099 O.2     
  11 O11            1.3354    -1.4387     1.4687 O.2     
  12 C12           -1.9634    -3.8404    -0.5898 C.2     
  13 S13           -3.3416    -4.2316     0.4300 S.3     
  14 C14           -3.9134    -5.4124    -0.7414 C.2     
  15 C15           -3.0706    -5.4466    -1.7930 C.2     
  16 C16           -2.0037    -4.5754    -1.7055 C.2     
  17 Cl17          -0.7960    -4.4531    -2.9466 Cl      
  18 C18           -5.1296    -6.2399    -0.5951 C.ar    
  19 C19           -5.4843    -7.1466    -1.5945 C.ar    
  20 C20           -6.6223    -7.9175    -1.4509 C.ar    
  21 C21           -7.4091    -7.7904    -0.3175 C.ar    
  22 C22           -7.0611    -6.8927     0.6758 C.ar    
  23 C23           -5.9246    -6.1216     0.5463 C.ar    
  24 F24           -6.9684    -8.7958    -2.4173 F       
  25 H25            1.0048     1.8381     0.0023 H       
  26 H26           -0.5450     1.8219    -0.8730 H       
  27 H27           -0.5280     1.8123     0.9069 H       
  28 H28            0.7883    -0.9307    -2.9835 H       
  29 H29           -1.4804    -1.8399    -2.0505 H       
  30 H30           -2.2071    -1.7432     1.0811 H       
  31 H31           -1.1573    -2.9394     1.8845 H       
  32 H32            1.2322    -2.7780     0.0418 H       
  33 H33            0.4485    -4.2871     0.5677 H       
  34 H34            0.6857    -3.9650    -1.1667 H       
  35 H35           -3.2207    -6.1010    -2.6390 H       
  36 H36           -4.8713    -7.2454    -2.4782 H       
  37 H37           -8.2979    -8.3944    -0.2093 H       
  38 H38           -7.6785    -6.7983     1.5569 H       
  39 H39           -5.6546    -5.4216     1.3232 H       
@<TRIPOS>BOND
   1    1    7 1
   2    1   25 1
   3    1   26 1
   4    1   27 1
   5    2    8 2
   6    2   28 1
   7    3    4 1
   8    3    8 1
   9    3   29 1
  10    4    5 1
  11    4    9 1
  12    4   12 1
  13    5    6 1
  14    5   30 1
  15    5   31 1
  16    6    7 am
  17    6   10 2
  18    6   11 2
  19    7    8 1
  20    9   32 1
  21    9   33 1
  22    9   34 1
  23   12   13 1
  24   12   16 2
  25   13   14 1
  26   14   15 2
  27   14   18 1
  28   15   16 1
  29   15   35 1
  30   16   17 1
  31   18   19 ar
  32   18   23 ar
  33   19   20 ar
  34   19   36 1
  35   20   21 ar
  36   20   24 1
  37   21   22 ar
  38   21   37 1
  39   22   23 ar
  40   22   38 1
  41   23   39 1

#	End of record

