#	Name: ASD01880994
#	Creating user name:	WinNT
#	Creation time:	15. 06. 2019 19:41

#	Modifying user name:	WinNT
#	Modification time:	15. 06. 2019 19:41

#	Program:	/corina/corina34_cracker 3.40 0067  02.08.2006

@<TRIPOS>MOLECULE
ASD01880994
  35   37    0    0    0
SMALL
NO_CHARGES


@<TRIPOS>ATOM
   1 N1            -0.0158     1.3135     0.0093 N.ar    
   2 C2             0.0021    -0.0041     0.0020 C.ar    
   3 N3             1.1318    -0.6829    -0.0120 N.ar    
   4 C4             2.2994    -0.0573    -0.0198 C.ar    
   5 C5             2.3214     1.3299    -0.0130 C.ar    
   6 C6             1.1124     2.0080     0.0022 C.ar    
   7 C7             3.6277     2.0813    -0.0214 C.3     
   8 O8             4.0280     2.3255    -1.3713 O.3     
   9 C9             5.1926     2.9972    -1.5566 C.ar    
  10 C10            5.6409     3.2684    -2.8461 C.ar    
  11 C11            6.8184     3.9481    -3.0333 C.ar    
  12 C12            7.5739     4.3717    -1.9346 C.ar    
  13 C13            7.1194     4.0968    -0.6404 C.ar    
  14 C14            5.9328     3.4181    -0.4591 C.ar    
  15 C15            7.5695     4.3936    -4.2633 C.3     
  16 N16            8.7727     5.0815    -3.7814 N.am    
  17 C17            8.7708     5.0663    -2.4375 C.2     
  18 O18            9.6347     5.5569    -1.7364 O.2     
  19 Cl19           3.7817    -0.9608    -0.0376 Cl      
  20 Cl20           8.0442     4.6143     0.7346 Cl      
  21 Br21           1.0740     3.8986     0.0115 Br      
  22 C22            9.4455     7.1461    -4.9066 C.3     
  23 C23            9.8058     5.6858    -4.6262 C.3     
  24 H24           -0.9343    -0.5423     0.0081 H       
  25 H25            3.5038     3.0313     0.4984 H       
  26 H26            4.3911     1.4883     0.4823 H       
  27 H27            5.0627     2.9440    -3.6987 H       
  28 H28            5.5815     3.2061     0.5399 H       
  29 H29            7.8481     3.5291    -4.8659 H       
  30 H30            6.9562     5.0778    -4.8496 H       
  31 H31           10.2141     7.5958    -5.5352 H       
  32 H32            8.4846     7.1912    -5.4193 H       
  33 H33            9.3809     7.6917    -3.9652 H       
  34 H34           10.7667     5.6407    -4.1135 H       
  35 H35            9.8704     5.1403    -5.5676 H       
@<TRIPOS>BOND
   1    1    2 ar
   2    1    6 ar
   3    2    3 ar
   4    2   24 1
   5    3    4 ar
   6    4    5 ar
   7    4   19 1
   8    5    6 ar
   9    5    7 1
  10    6   21 1
  11    7    8 1
  12    7   25 1
  13    7   26 1
  14    8    9 1
  15    9   10 ar
  16    9   14 ar
  17   10   11 ar
  18   10   27 1
  19   11   12 ar
  20   11   15 1
  21   12   13 ar
  22   12   17 1
  23   13   14 ar
  24   13   20 1
  25   14   28 1
  26   15   16 1
  27   15   29 1
  28   15   30 1
  29   16   17 am
  30   16   23 1
  31   17   18 2
  32   22   23 1
  33   22   31 1
  34   22   32 1
  35   22   33 1
  36   23   34 1
  37   23   35 1

#	End of record

