#	Name: ASD01916597
#	Creating user name:	WinNT
#	Creation time:	15. 06. 2019 20:07

#	Modifying user name:	WinNT
#	Modification time:	15. 06. 2019 20:07

#	Program:	/corina/corina34_cracker 3.40 0067  02.08.2006

@<TRIPOS>MOLECULE
ASD01916597
  47   50    0    0    0
SMALL
NO_CHARGES


@<TRIPOS>ATOM
   1 C1            -0.0171     1.4098     0.0098 C.ar    
   2 C2             0.0021    -0.0041     0.0020 C.ar    
   3 C3            -1.1918    -0.7257     0.0035 C.ar    
   4 C4            -2.3848    -0.0644     0.0102 C.ar    
   5 C5            -2.4224     1.3382     0.0180 C.ar    
   6 C6            -1.2411     2.0762     0.0192 C.ar    
   7 N7             1.1589     2.0864     0.0022 N.2     
   8 C8             2.3036     1.4746    -0.0283 C.2     
   9 N9             2.4090     0.1109    -0.0343 N.am    
  10 C10            1.3117    -0.6723    -0.0125 C.2     
  11 C11           -3.6840     2.0157     0.0243 C.1     
  12 O12            1.4019    -1.8863    -0.0048 O.2     
  13 C13           -4.7183     2.5711     0.0295 C.1     
  14 C14           -5.9799     3.2485     0.0359 C.ar    
  15 N15           -6.0154     4.5775     0.0433 N.ar    
  16 C16           -7.1552     5.2370     0.0489 C.ar    
  17 C17           -8.3649     4.5660     0.0472 C.ar    
  18 C18           -8.3751     3.1777     0.0395 C.ar    
  19 C19           -7.1649     2.5080     0.0284 C.ar    
  20 C20            3.5843     2.2791    -0.0715 C.3     
  21 C21            4.1829     2.1877    -1.4730 C.3     
  22 C22            5.0935     0.9794    -1.6028 C.3     
  23 C23            4.3333    -0.3292    -1.4700 C.3     
  24 C24            3.7496    -0.4859    -0.0671 C.3     
  25 C25            5.7789     1.0189    -2.9700 C.3     
  26 C26            6.6031     2.3023    -3.0905 C.3     
  27 F27            6.0721     1.0393    -0.6048 F       
  28 H28           -1.1715    -1.8055    -0.0009 H       
  29 H29           -3.3079    -0.6250     0.0090 H       
  30 H30           -1.2734     3.1557     0.0276 H       
  31 H31           -7.1455     6.3169     0.0552 H       
  32 H32           -9.2935     5.1175     0.0522 H       
  33 H33           -9.3074     2.6327     0.0380 H       
  34 H34           -7.1362     1.4284     0.0222 H       
  35 H35            3.3686     3.3210     0.1655 H       
  36 H36            4.2918     1.8777     0.6541 H       
  37 H37            3.3762     2.1071    -2.2016 H       
  38 H38            4.7574     3.0915    -1.6759 H       
  39 H39            3.5229    -0.3476    -2.1986 H       
  40 H40            5.0116    -1.1587    -1.6698 H       
  41 H41            4.3917     0.0207     0.6533 H       
  42 H42            3.6833    -1.5446     0.1837 H       
  43 H43            6.4352     0.1547    -3.0725 H       
  44 H44            5.0238     0.9969    -3.7558 H       
  45 H45            7.3582     2.3243    -2.3048 H       
  46 H46            7.0914     2.3304    -4.0646 H       
  47 H47            5.9467     3.1665    -2.9881 H       
@<TRIPOS>BOND
   1    1    2 ar
   2    1    7 1
   3    1    6 ar
   4    2    3 ar
   5    2   10 1
   6    3    4 ar
   7    3   28 1
   8    4    5 ar
   9    4   29 1
  10    5    6 ar
  11    5   11 1
  12    6   30 1
  13    7    8 2
  14    8    9 1
  15    8   20 1
  16    9   10 am
  17    9   24 1
  18   10   12 2
  19   11   13 3
  20   13   14 1
  21   14   15 ar
  22   14   19 ar
  23   15   16 ar
  24   16   17 ar
  25   16   31 1
  26   17   18 ar
  27   17   32 1
  28   18   19 ar
  29   18   33 1
  30   19   34 1
  31   20   21 1
  32   20   35 1
  33   20   36 1
  34   21   22 1
  35   21   37 1
  36   21   38 1
  37   22   23 1
  38   22   25 1
  39   22   27 1
  40   23   24 1
  41   23   39 1
  42   23   40 1
  43   24   41 1
  44   24   42 1
  45   25   26 1
  46   25   43 1
  47   25   44 1
  48   26   45 1
  49   26   46 1
  50   26   47 1

#	End of record

