#	Name: ASD00990021
#	Creating user name:	WinNT
#	Creation time:	15. 06. 2019 18:54

#	Modifying user name:	WinNT
#	Modification time:	15. 06. 2019 18:54

#	Program:	/corina/corina34_cracker 3.40 0067  02.08.2006

@<TRIPOS>MOLECULE
ASD00990021
  62   66    0    0    0
SMALL
NO_CHARGES


@<TRIPOS>ATOM
   1 C1            -0.0166     1.3730     0.0096 C.ar    
   2 C2             0.0021    -0.0041     0.0020 C.ar    
   3 C3             1.2248    -0.6787    -0.0137 C.ar    
   4 C4             2.4125     0.0510    -0.0193 C.ar    
   5 C5             2.3812     1.4352    -0.0085 C.ar    
   6 C6             1.1692     2.0952     0.0021 C.ar    
   7 C7             1.0899     3.6009     0.0013 C.3     
   8 C8             3.6912     2.1792    -0.0031 C.3     
   9 N9             3.4909     3.5751    -0.4045 N.3     
  10 C10            2.4370     4.1948     0.4132 C.3     
  11 C11            1.2582    -2.1103    -0.0235 C.1     
  12 C12            4.7448     4.3347    -0.3113 C.3     
  13 C13            5.7428     3.7997    -1.3402 C.3     
  14 C14            7.0488     4.5908    -1.2432 C.3     
  15 C15            7.6978     4.3388     0.1192 C.3     
  16 C16            8.0013     4.1409    -2.3529 C.3     
  17 C17            9.3073     4.9321    -2.2559 C.3     
  18 C18            9.9562     4.6800    -0.8934 C.3     
  19 C19            9.0038     5.1299     0.2162 C.3     
  20 N20           10.2391     3.2503    -0.7443 N.am    
  21 C21           11.2188     2.8402     0.0854 C.2     
  22 C22           11.5028     1.4051     0.2352 C.2     
  23 O23           11.8682     3.6572     0.7105 O.2     
  24 N24           10.8420     0.3852    -0.4219 N.pl3   
  25 C25           12.4607     0.8713     1.0373 C.2     
  26 C26           12.4085    -0.5363     0.8933 C.ar    
  27 C27           11.3821    -0.8169    -0.0301 C.ar    
  28 C28           13.1385    -1.5890     1.4595 C.ar    
  29 C29           12.8490    -2.8777     1.1159 C.ar    
  30 C30           11.8354    -3.1572     0.2083 C.ar    
  31 C31           11.1078    -2.1392    -0.3669 C.ar    
  32 N32            1.2847    -3.2460    -0.0314 N.1     
  33 H33           -0.9617     1.8956     0.0169 H       
  34 H34           -0.9242    -0.5594     0.0086 H       
  35 H35            3.3610    -0.4654    -0.0316 H       
  36 H36            0.8315     3.9490    -0.9988 H       
  37 H37            0.3221     3.9232     0.7046 H       
  38 H38            4.1167     2.1509     1.0000 H       
  39 H39            4.3798     1.7001    -0.6990 H       
  40 H40            2.4290     5.2718     0.2456 H       
  41 H41            2.6221     3.9867     1.4670 H       
  42 H42            4.5472     5.3880    -0.5104 H       
  43 H43            5.1619     4.2262     0.6899 H       
  44 H44            5.9405     2.7464    -1.1411 H       
  45 H45            5.3258     3.9082    -2.3414 H       
  46 H46            6.8383     5.6545    -1.3542 H       
  47 H47            7.0192     4.6593     0.9097 H       
  48 H48            7.9083     3.2751     0.2302 H       
  49 H49            8.2118     3.0772    -2.2419 H       
  50 H50            7.5389     4.3205    -3.3235 H       
  51 H51            9.9858     4.6115    -3.0464 H       
  52 H52            9.0968     5.9958    -2.3668 H       
  53 H53           10.8866     5.2436    -0.8243 H       
  54 H54            8.7933     6.1936     0.1052 H       
  55 H55            9.4661     4.9504     1.1868 H       
  56 H56            9.7213     2.5989    -1.2427 H       
  57 H57           10.1163     0.4986    -1.0555 H       
  58 H58           13.1402     1.4219     1.6710 H       
  59 H59           13.9287    -1.3815     2.1658 H       
  60 H60           13.4136    -3.6878     1.5536 H       
  61 H61           11.6194    -4.1826    -0.0530 H       
  62 H62           10.3247    -2.3665    -1.0751 H       
@<TRIPOS>BOND
   1    1    2 ar
   2    1    6 ar
   3    1   33 1
   4    2    3 ar
   5    2   34 1
   6    3    4 ar
   7    3   11 1
   8    4    5 ar
   9    4   35 1
  10    5    6 ar
  11    5    8 1
  12    6    7 1
  13    7   10 1
  14    7   36 1
  15    7   37 1
  16    8    9 1
  17    8   38 1
  18    8   39 1
  19    9   10 1
  20    9   12 1
  21   10   40 1
  22   10   41 1
  23   11   32 3
  24   12   13 1
  25   12   42 1
  26   12   43 1
  27   13   14 1
  28   13   44 1
  29   13   45 1
  30   14   16 1
  31   14   15 1
  32   14   46 1
  33   15   19 1
  34   15   47 1
  35   15   48 1
  36   16   17 1
  37   16   49 1
  38   16   50 1
  39   17   18 1
  40   17   51 1
  41   17   52 1
  42   18   19 1
  43   18   20 1
  44   18   53 1
  45   19   54 1
  46   19   55 1
  47   20   21 am
  48   20   56 1
  49   21   22 1
  50   21   23 2
  51   22   25 2
  52   22   24 1
  53   24   27 1
  54   24   57 1
  55   25   26 1
  56   25   58 1
  57   26   28 ar
  58   26   27 ar
  59   27   31 ar
  60   28   29 ar
  61   28   59 1
  62   29   30 ar
  63   29   60 1
  64   30   31 ar
  65   30   61 1
  66   31   62 1

#	End of record

