#	Name: ASD01813239
#	Creating user name:	WinNT
#	Creation time:	15. 06. 2019 19:30

#	Modifying user name:	WinNT
#	Modification time:	15. 06. 2019 19:30

#	Program:	/corina/corina34_cracker 3.40 0067  02.08.2006

@<TRIPOS>MOLECULE
ASD01813239
  61   65    0    0    0
SMALL
NO_CHARGES


@<TRIPOS>ATOM
   1 C1             1.8272     1.3532     0.9865 C.2     
   2 C2             1.6243    -0.0291     0.8763 C.2     
   3 C3             2.6853    -0.8444     0.6104 C.2     
   4 C4             3.9638    -0.2843     0.4516 C.2     
   5 N5             4.1332     1.0690     0.5649 N.am    
   6 C6             3.0653     1.8739     0.8305 C.2     
   7 C7             5.0558    -1.1200     0.1784 C.2     
   8 C8             6.3020    -0.5861     0.0228 C.2     
   9 C9             6.4724     0.8059     0.1394 C.2     
  10 C10            5.3547     1.6197     0.4151 C.2     
  11 O11            5.4931     2.8270     0.5174 O.2     
  12 C12            7.7995     1.4038    -0.0228 C.2     
  13 O13            7.9562     2.7388     0.0902 O.3     
  14 O14            8.7604     0.6965    -0.2594 O.2     
  15 C15            4.8534    -2.6084     0.0572 C.3     
  16 N16            4.6754    -2.9648    -1.3568 N.3     
  17 C17            4.7123    -4.4211    -1.5411 C.3     
  18 C18            4.6682    -4.7494    -3.0351 C.3     
  19 C19            3.3846    -4.1734    -3.6415 C.3     
  20 C20            3.3521    -2.6612    -3.3956 C.3     
  21 C21            3.4327    -2.3933    -1.8911 C.3     
  22 C22            3.3743    -4.4347    -5.1255 C.ar    
  23 C23            2.6490    -5.4531    -5.7010 C.ar    
  24 C24            1.7855    -6.3874    -4.8910 C.3     
  25 N25            2.0659    -6.2028    -3.4630 N.am    
  26 C26            2.1731    -4.8199    -2.9697 C.3     
  27 C27            4.1396    -3.5991    -5.9306 C.ar    
  28 C28            4.1815    -3.7863    -7.2963 C.ar    
  29 C29            3.4569    -4.8135    -7.8721 C.ar    
  30 C30            2.6944    -5.6427    -7.0758 C.ar    
  31 S31            2.2535    -7.4972    -2.4472 S.o2    
  32 O32            2.8218    -8.5078    -3.2687 O.2     
  33 O33            2.9653    -6.9702    -1.3359 O.2     
  34 C34            0.5625    -7.9440    -1.9662 C.3     
  35 H35            0.9912     2.0051     1.1924 H       
  36 H36            0.6357    -0.4456     1.0012 H       
  37 H37            2.5436    -1.9115     0.5232 H       
  38 H38            3.2101     2.9406     0.9178 H       
  39 H39            7.1476    -1.2244    -0.1871 H       
  40 H40            8.8509     3.0872    -0.0249 H       
  41 H41            5.7252    -3.1273     0.4557 H       
  42 H42            3.9673    -2.9017     0.6201 H       
  43 H43            5.6305    -4.8187    -1.1089 H       
  44 H44            3.8528    -4.8718    -1.0448 H       
  45 H45            5.5340    -4.3095    -3.5301 H       
  46 H46            4.6813    -5.8309    -3.1706 H       
  47 H47            4.2004    -2.1928    -3.8947 H       
  48 H48            2.4235    -2.2482    -3.7897 H       
  49 H49            2.5785    -2.8531    -1.3941 H       
  50 H50            3.4212    -1.3181    -1.7125 H       
  51 H51            0.7350    -6.1712    -5.0856 H       
  52 H52            2.0019    -7.4178    -5.1732 H       
  53 H53            2.3095    -4.8237    -1.8883 H       
  54 H54            1.2700    -4.2659    -3.2262 H       
  55 H55            4.7062    -2.7961    -5.4828 H       
  56 H56            4.7785    -3.1321    -7.9144 H       
  57 H57            3.4875    -4.9658    -8.9409 H       
  58 H58            2.1283    -6.4452    -7.5251 H       
  59 H59           -0.0036    -8.2305    -2.8524 H       
  60 H60            0.5924    -8.7805    -1.2680 H       
  61 H61            0.0827    -7.0894    -1.4891 H       
@<TRIPOS>BOND
   1    1    2 1
   2    1    6 2
   3    1   35 1
   4    2    3 2
   5    2   36 1
   6    3    4 1
   7    3   37 1
   8    4    5 1
   9    4    7 2
  10    5    6 1
  11    5   10 am
  12    6   38 1
  13    7    8 1
  14    7   15 1
  15    8    9 2
  16    8   39 1
  17    9   10 1
  18    9   12 1
  19   10   11 2
  20   12   13 1
  21   12   14 2
  22   13   40 1
  23   15   16 1
  24   15   41 1
  25   15   42 1
  26   16   17 1
  27   16   21 1
  28   17   18 1
  29   17   43 1
  30   17   44 1
  31   18   19 1
  32   18   45 1
  33   18   46 1
  34   19   20 1
  35   19   22 1
  36   19   26 1
  37   20   21 1
  38   20   47 1
  39   20   48 1
  40   21   49 1
  41   21   50 1
  42   22   23 ar
  43   22   27 ar
  44   23   24 1
  45   23   30 ar
  46   24   25 1
  47   24   51 1
  48   24   52 1
  49   25   26 1
  50   25   31 am
  51   26   53 1
  52   26   54 1
  53   27   28 ar
  54   27   55 1
  55   28   29 ar
  56   28   56 1
  57   29   30 ar
  58   29   57 1
  59   30   58 1
  60   31   32 2
  61   31   33 2
  62   31   34 1
  63   34   59 1
  64   34   60 1
  65   34   61 1

#	End of record

