#	Name: ASD01200105
#	Creating user name:	WinNT
#	Creation time:	15. 06. 2019 19:08

#	Modifying user name:	WinNT
#	Modification time:	15. 06. 2019 19:08

#	Program:	/corina/corina34_cracker 3.40 0067  02.08.2006

@<TRIPOS>MOLECULE
ASD01200105
  59   63    0    0    0
SMALL
NO_CHARGES


@<TRIPOS>ATOM
   1 N1             0.0143     0.9906     0.9346 N.am    
   2 C2            -0.2192    -0.2929     1.2347 C.2     
   3 C3             0.7870    -1.1461     1.9559 C.3     
   4 O4             2.0715    -0.5199     1.9145 O.3     
   5 C5             2.0361     0.8562     2.3106 C.3     
   6 C6             1.2784     1.6532     1.2468 C.3     
   7 O7            -1.2803    -0.7849     0.9138 O.2     
   8 C8            -1.0361     1.7589     0.2619 C.3     
   9 C9            -5.4886     3.1066     4.0095 C.2     
  10 N10           -4.5158     3.9823     4.0644 N.2     
  11 C11           -3.5363     3.6302     3.1977 C.ar    
  12 C12           -3.9483     2.4434     2.5647 C.ar    
  13 N13           -5.1858     2.1338     3.0960 N.pl3   
  14 C14           -2.3023     4.1971     2.8619 C.ar    
  15 C15           -1.5039     3.5873     1.9152 C.ar    
  16 C16           -1.9192     2.4126     1.2934 C.ar    
  17 C17           -3.1328     1.8441     1.6148 C.ar    
  18 C18           -6.7265     3.1583     4.8188 C.ar    
  19 C19           -6.9182     4.2016     5.7238 C.ar    
  20 C20           -8.0816     4.2363     6.4733 C.ar    
  21 C21           -9.0158     3.2264     6.2933 C.ar    
  22 C22           -8.7608     2.2210     5.3774 C.ar    
  23 N23           -7.6483     2.2139     4.6733 N.ar    
  24 O24           -0.3045     4.1374     1.5875 O.3     
  25 C25            0.1132     5.2223     2.2910 C.ar    
  26 C26            0.8333     5.0542     3.4651 C.ar    
  27 C27            1.2572     6.1588     4.1781 C.ar    
  28 C28            0.9642     7.4311     3.7229 C.ar    
  29 C29            0.2467     7.6014     2.5532 C.ar    
  30 C30           -0.1746     6.5002     1.8334 C.ar    
  31 S31            1.5054     8.8380     4.6353 S.o2    
  32 O32            0.5752     9.8564     4.2935 O.2     
  33 O33            1.6180     8.3671     5.9713 O.2     
  34 C34            3.1432     9.2169     3.9537 C.3     
  35 C35            3.7256    10.4351     4.6732 C.3     
  36 H36            0.4783    -1.2714     2.9937 H       
  37 H37            0.8444    -2.1229     1.4756 H       
  38 H38            1.5248     0.9479     3.2689 H       
  39 H39            3.0533     1.2379     2.3982 H       
  40 H40            1.8851     1.7193     0.3436 H       
  41 H41            1.0781     2.6572     1.6210 H       
  42 H42           -0.5807     2.5256    -0.3649 H       
  43 H43           -1.6344     1.0911    -0.3579 H       
  44 H44           -5.7366     1.3695     2.8649 H       
  45 H45           -1.9756     5.1081     3.3413 H       
  46 H46           -3.4486     0.9329     1.1287 H       
  47 H47           -6.1695     4.9714     5.8388 H       
  48 H48           -8.2580     5.0316     7.1824 H       
  49 H49           -9.9334     3.2248     6.8630 H       
  50 H50           -9.4862     1.4336     5.2352 H       
  51 H51            1.0619     4.0606     3.8215 H       
  52 H52            1.8177     6.0285     5.0920 H       
  53 H53            0.0189     8.5963     2.2000 H       
  54 H54           -0.7313     6.6338     0.9177 H       
  55 H55            3.8029     8.3610     4.0963 H       
  56 H56            3.0527     9.4325     2.8891 H       
  57 H57            4.7097    10.6628     4.2636 H       
  58 H58            3.0659    11.2910     4.5307 H       
  59 H59            3.8161    10.2194     5.7378 H       
@<TRIPOS>BOND
   1    1    2 am
   2    1    6 1
   3    1    8 1
   4    2    3 1
   5    2    7 2
   6    3    4 1
   7    3   36 1
   8    3   37 1
   9    4    5 1
  10    5    6 1
  11    5   38 1
  12    5   39 1
  13    6   40 1
  14    6   41 1
  15    8   16 1
  16    8   42 1
  17    8   43 1
  18    9   10 2
  19    9   13 1
  20    9   18 1
  21   10   11 1
  22   11   12 ar
  23   11   14 ar
  24   12   13 1
  25   12   17 ar
  26   13   44 1
  27   14   15 ar
  28   14   45 1
  29   15   16 ar
  30   15   24 1
  31   16   17 ar
  32   17   46 1
  33   18   19 ar
  34   18   23 ar
  35   19   20 ar
  36   19   47 1
  37   20   21 ar
  38   20   48 1
  39   21   22 ar
  40   21   49 1
  41   22   23 ar
  42   22   50 1
  43   24   25 1
  44   25   26 ar
  45   25   30 ar
  46   26   27 ar
  47   26   51 1
  48   27   28 ar
  49   27   52 1
  50   28   29 ar
  51   28   31 1
  52   29   30 ar
  53   29   53 1
  54   30   54 1
  55   31   32 2
  56   31   33 2
  57   31   34 1
  58   34   35 1
  59   34   55 1
  60   34   56 1
  61   35   57 1
  62   35   58 1
  63   35   59 1

#	End of record

