#	Name: ASD08150422
#	Creating user name:	WinNT
#	Creation time:	15. 06. 2019 21:16

#	Modifying user name:	WinNT
#	Modification time:	15. 06. 2019 21:16

#	Program:	/corina/corina34_cracker 3.40 0067  02.08.2006

@<TRIPOS>MOLECULE
ASD08150422
  28   29    0    0    0
SMALL
NO_CHARGES


@<TRIPOS>ATOM
   1 C1            -0.0181     1.4687     0.0151 C.2     
   2 C2             0.0014    -0.0045     0.0120 C.ar    
   3 C3             0.0195    -0.7136     1.2239 C.ar    
   4 C4             0.0378    -2.1021     1.2074 C.ar    
   5 C5             0.0383    -2.7804     0.0051 C.ar    
   6 C6             0.0205    -2.0854    -1.1928 C.ar    
   7 C7            -0.0038    -0.7059    -1.1978 C.ar    
   8 O8             1.0270     2.0907     0.0088 O.2     
   9 N9            -1.1941     2.1271     0.0193 N.am    
  10 C10           -1.2148     3.5208     0.1325 C.ar    
  11 C11           -2.1829     4.2584    -0.5362 C.ar    
  12 C12           -2.2019     5.6370    -0.4224 C.ar    
  13 C13           -1.2562     6.2814     0.3572 C.ar    
  14 C14           -0.2900     5.5478     1.0248 C.ar    
  15 C15           -0.2709     4.1686     0.9184 C.ar    
  16 F16            0.6318     6.1790     1.7845 F       
  17 F17           -3.1435     6.3550    -1.0728 F       
  18 Cl18          -0.0338     0.1577    -2.7034 Cl      
  19 N19            0.0195    -0.0298     2.4327 N.pl3   
  20 H20            0.0521    -2.6522     2.1368 H       
  21 H21            0.0529    -3.8602    -0.0015 H       
  22 H22            0.0210    -2.6261    -2.1276 H       
  23 H23           -2.0261     1.6342    -0.0563 H       
  24 H24           -2.9202     3.7562    -1.1449 H       
  25 H25           -1.2720     7.3578     0.4444 H       
  26 H26            0.4801     3.5965     1.4428 H       
  27 H27            0.0070     0.9401     2.4413 H       
  28 H28            0.0320    -0.5221     3.2684 H       
@<TRIPOS>BOND
   1    1    2 1
   2    1    8 2
   3    1    9 am
   4    2    3 ar
   5    2    7 ar
   6    3    4 ar
   7    3   19 1
   8    4    5 ar
   9    4   20 1
  10    5    6 ar
  11    5   21 1
  12    6    7 ar
  13    6   22 1
  14    7   18 1
  15    9   10 1
  16    9   23 1
  17   10   11 ar
  18   10   15 ar
  19   11   12 ar
  20   11   24 1
  21   12   13 ar
  22   12   17 1
  23   13   14 ar
  24   13   25 1
  25   14   15 ar
  26   14   16 1
  27   15   26 1
  28   19   27 1
  29   19   28 1

#	End of record

