#	Name: ASD05420026
#	Creating user name:	WinNT
#	Creation time:	15. 06. 2019 20:59

#	Modifying user name:	WinNT
#	Modification time:	15. 06. 2019 20:59

#	Program:	/corina/corina34_cracker 3.40 0067  02.08.2006

@<TRIPOS>MOLECULE
ASD05420026
  29   30    0    0    0
SMALL
NO_CHARGES


@<TRIPOS>ATOM
   1 N1            -0.0280     1.3928    -0.0895 N.pl3   
   2 C2            -0.0035    -0.0048    -0.0474 C.ar    
   3 C3             1.2042    -0.6849    -0.1673 C.ar    
   4 C4             1.2239    -2.0665    -0.1246 C.ar    
   5 C5             0.0447    -2.7714     0.0366 C.ar    
   6 C6            -1.1564    -2.0977     0.1560 C.ar    
   7 C7            -1.1832    -0.7165     0.1200 C.ar    
   8 N8            -2.4697     0.0031     0.2536 N.pl3   
   9 O9            -2.5206     1.0494     0.8750 O.2     
  10 O10           -3.4775    -0.4510    -0.2579 O.2     
  11 C11            2.5310    -2.8052    -0.2544 C.3     
  12 C12            3.1919    -2.8978     1.0968 C.ar    
  13 C13            2.9301    -3.9758     1.9217 C.ar    
  14 C14            3.5364    -4.0614     3.1608 C.ar    
  15 C15            4.4053    -3.0682     3.5755 C.ar    
  16 C16            4.6670    -1.9897     2.7498 C.ar    
  17 C17            4.0643    -1.9077     1.5087 C.ar    
  18 Br18           5.2346    -3.1844     5.2710 Br      
  19 F19            2.3557     0.0037    -0.3257 F       
  20 H20            0.8033     1.8927    -0.0905 H       
  21 H21           -0.8762     1.8622    -0.1219 H       
  22 H22            0.0624    -3.8508     0.0690 H       
  23 H23           -2.0750    -2.6516     0.2818 H       
  24 H24            2.3448    -3.8086    -0.6373 H       
  25 H25            3.1846    -2.2692    -0.9425 H       
  26 H26            2.2514    -4.7511     1.5980 H       
  27 H27            3.3315    -4.9035     3.8053 H       
  28 H28            5.3450    -1.2139     3.0733 H       
  29 H29            4.2717    -1.0677     0.8622 H       
@<TRIPOS>BOND
   1    1    2 1
   2    1   20 1
   3    1   21 1
   4    2    3 ar
   5    2    7 ar
   6    3    4 ar
   7    3   19 1
   8    4    5 ar
   9    4   11 1
  10    5    6 ar
  11    5   22 1
  12    6    7 ar
  13    6   23 1
  14    7    8 1
  15    8    9 2
  16    8   10 2
  17   11   12 1
  18   11   24 1
  19   11   25 1
  20   12   13 ar
  21   12   17 ar
  22   13   14 ar
  23   13   26 1
  24   14   15 ar
  25   14   27 1
  26   15   16 ar
  27   15   18 1
  28   16   17 ar
  29   16   28 1
  30   17   29 1

#	End of record

