#	Name: ASD05323007
#	Creating user name:	WinNT
#	Creation time:	15. 06. 2019 20:59

#	Modifying user name:	WinNT
#	Modification time:	15. 06. 2019 20:59

#	Program:	/corina/corina34_cracker 3.40 0067  02.08.2006

@<TRIPOS>MOLECULE
ASD05323007
  62   65    0    0    0
SMALL
NO_CHARGES


@<TRIPOS>ATOM
   1 C1            -0.0187     1.5258     0.0104 C.3     
   2 C2             0.0021    -0.0041     0.0020 C.3     
   3 P3             1.6916     2.1568    -0.0025 P.3     
   4 O4             2.4039     1.7481    -1.3873 O.3     
   5 O5             1.6730     3.7605     0.1386 O.3     
   6 O6             2.4423     1.5705     1.1303 O.2     
   7 O7            -3.6873    -2.5652     0.5221 O.3     
   8 C8            -2.8362    -3.1693     1.5180 C.3     
   9 O9            -1.5540    -2.5338     1.3855 O.3     
  10 C10           -1.4413    -2.0811     0.0271 C.3     
  11 C11           -2.8179    -2.4094    -0.6232 C.3     
  12 O12           -2.1070    -0.1960    -1.2175 O.3     
  13 C13           -1.4333    -0.5336     0.0129 C.3     
  14 C14           -3.2036    -1.1135    -1.3597 C.3     
  15 C15           -3.4046    -2.9214     2.9167 C.3     
  16 C16           -2.7082    -4.6719     1.2596 C.3     
  17 C17           -2.4132    -1.8250    -3.5379 C.2     
  18 N18           -2.5668    -2.1005    -4.8449 N.am    
  19 C19           -3.7707    -1.9512    -5.4363 C.2     
  20 C20           -4.9028    -1.4837    -4.6229 C.2     
  21 C21           -4.6845    -1.2202    -3.3010 C.2     
  22 N22           -3.4345    -1.3971    -2.7784 N.am    
  23 O23           -7.3479    -2.0044    -4.9085 O.3     
  24 C24           -6.2418    -1.3027    -5.2207 C.2     
  25 C25           -6.5713    -0.3981    -6.1810 C.2     
  26 C26           -7.9443    -0.5742    -6.4508 C.2     
  27 C27           -8.3795    -1.5662    -5.6509 C.2     
  28 O28           -3.9162    -2.1981    -6.6192 O.2     
  29 O29           -1.3193    -1.9723    -3.0279 O.2     
  30 C30            3.7827     2.0069    -1.6593 C.3     
  31 C31            4.1320     1.4930    -3.0574 C.3     
  32 C32            2.8611     4.5445     0.2648 C.3     
  33 C33            2.4864     6.0236     0.3778 C.3     
  34 H34           -0.5990    -2.5276    -0.5013 H       
  35 H35           -2.7936    -3.2893    -1.2662 H       
  36 H36           -0.5459     1.8868    -0.8726 H       
  37 H37           -0.5289     1.8773     0.9072 H       
  38 H38            0.5123    -0.3556    -0.8948 H       
  39 H39            0.5293    -0.3651     0.8851 H       
  40 H40           -1.9808    -0.1403     0.8694 H       
  41 H41           -4.1028    -0.6879    -0.9142 H       
  42 H42           -4.3906    -3.3795     2.9946 H       
  43 H43           -2.7405    -3.3597     3.6617 H       
  44 H44           -3.4876    -1.8485     3.0902 H       
  45 H45           -2.2993    -4.8356     0.2626 H       
  46 H46           -2.0430    -5.1129     2.0020 H       
  47 H47           -3.6912    -5.1377     1.3302 H       
  48 H48           -1.8083    -2.4079    -5.3655 H       
  49 H49           -5.4931    -0.8748    -2.6738 H       
  50 H50           -5.9097     0.3173    -6.6467 H       
  51 H51           -8.5351    -0.0183    -7.1639 H       
  52 H52           -9.3895    -1.9468    -5.6123 H       
  53 H53            3.9676     3.0800    -1.6100 H       
  54 H54            4.4008     1.4974    -0.9200 H       
  55 H55            5.1837     1.6904    -3.2649 H       
  56 H56            3.9471     0.4199    -3.1068 H       
  57 H57            3.5139     2.0025    -3.7967 H       
  58 H58            3.4053     4.2382     1.1582 H       
  59 H59            3.4900     4.3950    -0.6129 H       
  60 H60            1.9422     6.3298    -0.5155 H       
  61 H61            1.8575     6.1730     1.2555 H       
  62 H62            3.3926     6.6216     0.4741 H       
@<TRIPOS>BOND
   1    1    2 1
   2    1    3 1
   3    1   36 1
   4    1   37 1
   5    2   13 1
   6    2   38 1
   7    2   39 1
   8    3    4 1
   9    3    5 1
  10    3    6 2
  11    4   30 1
  12    5   32 1
  13    7    8 1
  14    7   11 1
  15    8    9 1
  16    8   15 1
  17    8   16 1
  18    9   10 1
  19   10   11 1
  20   10   34 1
  21   10   13 1
  22   11   35 1
  23   11   14 1
  24   12   13 1
  25   12   14 1
  26   13   40 1
  27   14   22 1
  28   14   41 1
  29   15   42 1
  30   15   43 1
  31   15   44 1
  32   16   45 1
  33   16   46 1
  34   16   47 1
  35   17   18 am
  36   17   22 am
  37   17   29 2
  38   18   19 am
  39   18   48 1
  40   19   20 1
  41   19   28 2
  42   20   21 2
  43   20   24 1
  44   21   22 1
  45   21   49 1
  46   23   24 1
  47   23   27 1
  48   24   25 2
  49   25   26 1
  50   25   50 1
  51   26   27 2
  52   26   51 1
  53   27   52 1
  54   30   31 1
  55   30   53 1
  56   30   54 1
  57   31   55 1
  58   31   56 1
  59   31   57 1
  60   32   33 1
  61   32   58 1
  62   32   59 1
  63   33   60 1
  64   33   61 1
  65   33   62 1

#	End of record

