#	Name: ASD01820098
#	Creating user name:	WinNT
#	Creation time:	15. 06. 2019 19:36

#	Modifying user name:	WinNT
#	Modification time:	15. 06. 2019 19:36

#	Program:	/corina/corina34_cracker 3.40 0067  02.08.2006

@<TRIPOS>MOLECULE
ASD01820098
  86   87    0    0    0
SMALL
NO_CHARGES


@<TRIPOS>ATOM
   1 C1            -0.0171     1.4063     0.0098 C.ar    
   2 C2             1.1939     2.1352     0.0021 C.ar    
   3 C3             2.3960     1.4434    -0.0131 C.ar    
   4 C4             2.4017     0.0535    -0.0211 C.ar    
   5 C5             1.2418    -0.6668    -0.0139 C.ar    
   6 C6             0.0021    -0.0041     0.0020 C.ar    
   7 C7            -1.2192    -0.7003     0.0104 C.ar    
   8 C8            -2.3982    -0.0119     0.0254 C.ar    
   9 C9            -2.4303     1.3776     0.0332 C.ar    
  10 C10           -1.2473     2.1018     0.0312 C.ar    
  11 N11           -0.0555     4.2364     0.0263 N.am    
  12 C12            1.1333     3.6042     0.0111 C.2     
  13 C13           -1.2267     3.5720     0.0392 C.2     
  14 C14           -0.0755     5.7013     0.0349 C.3     
  15 C15           -0.0965     6.2194    -1.4045 C.3     
  16 C16           -0.1173     7.7493    -1.3956 C.3     
  17 N17           -0.1375     8.2468    -2.7776 N.4     
  18 C18           -0.1574     9.7156    -2.7690 C.3     
  19 C19           -0.1785    10.2338    -4.2084 C.3     
  20 C20           -0.2411    13.8117    -5.6300 C.3     
  21 C21           -0.2621    14.3299    -7.0694 C.3     
  22 N22           -0.2821    15.7987    -7.0608 N.4     
  23 C23           -0.3023    16.2963    -8.4428 C.3     
  24 C24           -0.3223    17.7681    -8.4342 C.1     
  25 C25           -0.3382    18.9420    -8.4273 C.1     
  26 C26           -0.3582    20.4138    -8.4187 C.3     
  27 O27           -0.3779    20.8978    -9.7631 O.3     
  28 C28           -0.3978    22.2393    -9.9324 C.2     
  29 O29           -0.4164    24.4400    -9.4771 O.3     
  30 C30           -0.8379    24.3994   -10.8550 C.3     
  31 C31           -0.4267    22.9646   -11.2643 C.3     
  32 N32           -0.4011    23.1100    -8.9978 N.2     
  33 C33           -1.4812    16.2680    -6.3538 C.3     
  34 C34            0.9173    16.3008    -6.3771 C.3     
  35 O35            2.1625     4.2519    -0.0001 O.2     
  36 O36           -2.2732     4.1913     0.0575 O.2     
  37 C37            1.0617     7.7775    -3.4845 C.3     
  38 C38           -1.3368     7.7448    -3.4613 C.3     
  39 C39           -0.2203    12.2819    -5.6389 C.3     
  40 C40           -0.1993    11.7637    -4.1995 C.3     
  41 H41            3.3298     1.9860    -0.0191 H       
  42 H42            3.3466    -0.4694    -0.0336 H       
  43 H43            1.2767    -1.7462    -0.0208 H       
  44 H44           -1.2248    -1.7803     0.0047 H       
  45 H45           -3.3286    -0.5604     0.0310 H       
  46 H46           -3.3784     1.8946     0.0450 H       
  47 H47           -0.9652     6.0495     0.5594 H       
  48 H48            0.8145     6.0738     0.5422 H       
  49 H49            0.7933     5.8712    -1.9291 H       
  50 H50           -0.9864     5.8469    -1.9118 H       
  51 H51           -1.0071     8.0975    -0.8710 H       
  52 H52            0.7727     8.1218    -0.8883 H       
  53 H53           -1.0472    10.0639    -2.2445 H       
  54 H54            0.7325    10.0882    -2.2617 H       
  55 H55            0.7113     9.8856    -4.7330 H       
  56 H56           -1.0684     9.8613    -4.7157 H       
  57 H57            0.6489    14.1842    -5.1227 H       
  58 H58           -1.1309    14.1599    -5.1054 H       
  59 H59            0.6277    13.9817    -7.5939 H       
  60 H60           -1.1520    13.9574    -7.5767 H       
  61 H61            0.5875    15.9481    -8.9674 H       
  62 H62           -1.1922    15.9238    -8.9501 H       
  63 H63           -1.2480    20.7620    -7.8942 H       
  64 H64            0.5317    20.7863    -7.9114 H       
  65 H65           -1.9162    24.5350   -10.9379 H       
  66 H66           -0.3054    25.1426   -11.4485 H       
  67 H67            0.5597    22.9620   -11.7280 H       
  68 H68           -1.1695    22.5238   -11.9292 H       
  69 H69           -1.4663    15.8988    -5.3284 H       
  70 H70           -1.4960    17.3579    -6.3475 H       
  71 H71           -2.3712    15.8955    -6.8611 H       
  72 H72            1.8071    15.9526    -6.9016 H       
  73 H73            0.9025    17.3906    -6.3707 H       
  74 H74            0.9323    15.9316    -5.3516 H       
  75 H75            1.0765     6.6876    -3.4909 H       
  76 H76            1.0467     8.1467    -4.5100 H       
  77 H77            1.9516     8.1500    -2.9772 H       
  78 H78           -2.2266     8.0930    -2.9368 H       
  79 H79           -1.3518     8.1140    -4.4868 H       
  80 H80           -1.3220     6.6549    -3.4677 H       
  81 H81           -1.1102    11.9094    -6.1462 H       
  82 H82            0.6695    11.9337    -6.1635 H       
  83 H83           -1.0890    12.1119    -3.6749 H       
  84 H84            0.6907    12.1362    -3.6922 H       
  85 Br85           8.3466    30.1426     5.5594 Br      
  86 Br86          13.3466    35.1426    10.5594 Br      
@<TRIPOS>BOND
   1    1    6 ar
   2    1    2 ar
   3    1   10 ar
   4    2    3 ar
   5    2   12 1
   6    3    4 ar
   7    3   41 1
   8    4    5 ar
   9    4   42 1
  10    5    6 ar
  11    5   43 1
  12    6    7 ar
  13    7    8 ar
  14    7   44 1
  15    8    9 ar
  16    8   45 1
  17    9   10 ar
  18    9   46 1
  19   10   13 1
  20   11   12 am
  21   11   13 am
  22   11   14 1
  23   12   35 2
  24   13   36 2
  25   14   15 1
  26   14   47 1
  27   14   48 1
  28   15   16 1
  29   15   49 1
  30   15   50 1
  31   16   17 1
  32   16   51 1
  33   16   52 1
  34   17   18 1
  35   17   37 1
  36   17   38 1
  37   18   19 1
  38   18   53 1
  39   18   54 1
  40   19   40 1
  41   19   55 1
  42   19   56 1
  43   20   21 1
  44   20   39 1
  45   20   57 1
  46   20   58 1
  47   21   22 1
  48   21   59 1
  49   21   60 1
  50   22   23 1
  51   22   33 1
  52   22   34 1
  53   23   24 1
  54   23   61 1
  55   23   62 1
  56   24   25 3
  57   25   26 1
  58   26   27 1
  59   26   63 1
  60   26   64 1
  61   27   28 1
  62   28   32 2
  63   28   31 1
  64   29   30 1
  65   29   32 1
  66   30   31 1
  67   30   65 1
  68   30   66 1
  69   31   67 1
  70   31   68 1
  71   33   69 1
  72   33   70 1
  73   33   71 1
  74   34   72 1
  75   34   73 1
  76   34   74 1
  77   37   75 1
  78   37   76 1
  79   37   77 1
  80   38   78 1
  81   38   79 1
  82   38   80 1
  83   39   40 1
  84   39   81 1
  85   39   82 1
  86   40   83 1
  87   40   84 1

#	End of record

