#	Name: ASD01120297
#	Creating user name:	WinNT
#	Creation time:	15. 06. 2019 18:59

#	Modifying user name:	WinNT
#	Modification time:	15. 06. 2019 18:59

#	Program:	/corina/corina34_cracker 3.40 0067  02.08.2006

@<TRIPOS>MOLECULE
ASD01120297
  37   39    0    0    0
SMALL
NO_CHARGES


@<TRIPOS>ATOM
   1 C1            -0.0784     1.4253    -0.0171 C.3     
   2 O2            -0.0468    -0.0032     0.0070 O.3     
   3 C3            -1.0192    -0.6540    -0.6861 C.ar    
   4 C4            -1.9817     0.0660    -1.3736 C.ar    
   5 C5            -2.9702    -0.5973    -2.0780 C.ar    
   6 C6            -3.0010    -1.9791    -2.0985 C.ar    
   7 C7            -2.0439    -2.7055    -1.4149 C.ar    
   8 C8            -1.0461    -2.0473    -0.7109 C.ar    
   9 N9            -0.0757    -2.7803    -0.0184 N.pl3   
  10 C10           -0.1830    -4.1649     0.0728 C.ar    
  11 C11           -1.4153    -4.7552     0.2874 C.ar    
  12 C12           -1.5258    -6.1346     0.3793 C.ar    
  13 C13           -0.4144    -6.9401     0.2586 C.ar    
  14 C14            0.8388    -6.3741     0.0422 C.ar    
  15 C15            0.9615    -4.9749    -0.0585 C.ar    
  16 C16            2.3286    -4.6925    -0.2752 C.2     
  17 C17            2.9977    -5.8772    -0.3029 C.2     
  18 N18            2.0957    -6.9095    -0.1148 N.pl3   
  19 C19            4.4421    -6.0347    -0.5048 C.2     
  20 O20            5.1440    -5.0548    -0.6653 O.2     
  21 O21            4.9916    -7.2664    -0.5122 O.3     
  22 N22           -0.5533    -8.4106     0.3597 N.pl3   
  23 O23           -1.6492    -8.9071     0.5494 O.2     
  24 O24            0.4283    -9.1238     0.2532 O.2     
  25 H25            0.7499     1.8170     0.5734 H       
  26 H26            0.0123     1.7734    -1.0460 H       
  27 H27           -1.0214     1.7750     0.4030 H       
  28 H28           -1.9609     1.1457    -1.3594 H       
  29 H29           -3.7203    -0.0340    -2.6133 H       
  30 H30           -3.7750    -2.4925    -2.6497 H       
  31 H31           -2.0704    -3.7850    -1.4326 H       
  32 H32            0.6718    -2.3233     0.3980 H       
  33 H33           -2.2965    -4.1384     0.3843 H       
  34 H34           -2.4940    -6.5826     0.5478 H       
  35 H35            2.7646    -3.7121    -0.3973 H       
  36 H36            2.3147    -7.8542    -0.0915 H       
  37 H37            5.9474    -7.3199    -0.6488 H       
@<TRIPOS>BOND
   1    1    2 1
   2    1   25 1
   3    1   26 1
   4    1   27 1
   5    2    3 1
   6    3    4 ar
   7    3    8 ar
   8    4    5 ar
   9    4   28 1
  10    5    6 ar
  11    5   29 1
  12    6    7 ar
  13    6   30 1
  14    7    8 ar
  15    7   31 1
  16    8    9 1
  17    9   10 1
  18    9   32 1
  19   10   11 ar
  20   10   15 ar
  21   11   12 ar
  22   11   33 1
  23   12   13 ar
  24   12   34 1
  25   13   14 ar
  26   13   22 1
  27   14   15 ar
  28   14   18 1
  29   15   16 1
  30   16   17 2
  31   16   35 1
  32   17   18 1
  33   17   19 1
  34   18   36 1
  35   19   20 2
  36   19   21 1
  37   21   37 1
  38   22   23 2
  39   22   24 2

#	End of record

