#	Name: ASD01120115
#	Creating user name:	WinNT
#	Creation time:	15. 06. 2019 18:59

#	Modifying user name:	WinNT
#	Modification time:	15. 06. 2019 18:59

#	Program:	/corina/corina34_cracker 3.40 0067  02.08.2006

@<TRIPOS>MOLECULE
ASD01120115
  32   34    0    0    0
SMALL
NO_CHARGES


@<TRIPOS>ATOM
   1 C1            -0.0117     1.3834     0.1013 C.ar    
   2 C2             0.0679     0.1556    -0.5297 C.ar    
   3 C3             1.2751    -0.5218    -0.5779 C.ar    
   4 C4             2.4077     0.0373     0.0103 C.ar    
   5 C5             2.3202     1.2699     0.6413 C.ar    
   6 C6             1.1117     1.9389     0.6854 C.ar    
   7 N7             3.6305    -0.6430    -0.0348 N.pl3   
   8 C8             4.8151     0.0676    -0.1470 C.2     
   9 N9             6.0057    -0.4436    -0.0790 N.2     
  10 C10            7.0274     0.3923    -0.2094 C.2     
  11 C11            6.6970     1.6814    -0.3981 C.2     
  12 S12            4.9392     1.8043    -0.4115 S.3     
  13 C13            8.4375    -0.0642    -0.1505 C.ar    
  14 C14            8.7272    -1.4133     0.0472 C.ar    
  15 C15           10.0395    -1.8346     0.1015 C.ar    
  16 C16           11.0711    -0.9167    -0.0405 C.ar    
  17 C17           10.7859     0.4274    -0.2375 C.ar    
  18 C18            9.4757     0.8541    -0.2985 C.ar    
  19 O19            1.3546    -1.7299    -1.1974 O.3     
  20 O20           12.3631    -1.3349     0.0139 O.3     
  21 H21           -0.9530     1.9119     0.1342 H       
  22 H22           -0.8116    -0.2755    -0.9848 H       
  23 H23            3.1960     1.7060     1.0986 H       
  24 H24            1.0448     2.8985     1.1765 H       
  25 H25            3.6486    -1.6117     0.0124 H       
  26 H26            7.3897     2.5005    -0.5238 H       
  27 H27            7.9250    -2.1279     0.1581 H       
  28 H28           10.2646    -2.8796     0.2551 H       
  29 H29           11.5907     1.1391    -0.3473 H       
  30 H30            9.2544     1.9000    -0.4522 H       
  31 H31            1.5735    -1.6760    -2.1377 H       
  32 H32           12.7319    -1.5854    -0.8441 H       
@<TRIPOS>BOND
   1    1    2 ar
   2    1    6 ar
   3    1   21 1
   4    2    3 ar
   5    2   22 1
   6    3    4 ar
   7    3   19 1
   8    4    5 ar
   9    4    7 1
  10    5    6 ar
  11    5   23 1
  12    6   24 1
  13    7    8 1
  14    7   25 1
  15    8    9 2
  16    8   12 1
  17    9   10 1
  18   10   11 2
  19   10   13 1
  20   11   12 1
  21   11   26 1
  22   13   14 ar
  23   13   18 ar
  24   14   15 ar
  25   14   27 1
  26   15   16 ar
  27   15   28 1
  28   16   17 ar
  29   16   20 1
  30   17   18 ar
  31   17   29 1
  32   18   30 1
  33   19   31 1
  34   20   32 1

#	End of record

