#	Name: ASD01410869
#	Creating user name:	WinNT
#	Creation time:	15. 06. 2019 19:18

#	Modifying user name:	WinNT
#	Modification time:	15. 06. 2019 19:18

#	Program:	/corina/corina34_cracker 3.40 0067  02.08.2006

@<TRIPOS>MOLECULE
ASD01410869
 116  122    0    0    0
SMALL
NO_CHARGES


@<TRIPOS>ATOM
   1 C1             1.0473     1.0138     1.5797 C.3     
   2 C2             0.3513    -0.1621     2.3037 C.3     
   3 N3             0.3505     0.2302     3.7281 N.am    
   4 C4             0.3713     1.6960     3.8062 C.3     
   5 C5             0.4809     2.2305     2.3615 C.3     
   6 O6             2.4674     0.9322     1.7156 O.3     
   7 C7            -0.9014     2.1936     4.4416 C.2     
   8 O8            -1.7501     1.4040     4.7980 O.2     
   9 N9            -1.0964     3.5160     4.6137 N.am    
  10 C10            1.2049    -1.4283     2.1721 C.3     
  11 C11            0.5637    -2.1061     4.5409 C.3     
  12 C12            0.3689    -0.6319     4.7586 C.2     
  13 O13            0.2260    -0.2118     5.8873 O.2     
  14 C14           -0.6339    -2.8607     5.1218 C.3     
  15 C15           -0.8977    -2.3773     6.5492 C.3     
  16 C16           -2.3841     4.0081     5.1097 C.3     
  17 C17           -3.5793     3.6790     4.2529 C.2     
  18 N18           -3.4361     3.5441     2.9196 N.am    
  19 O19           -4.6702     3.5354     4.7633 O.2     
  20 S20           -4.7666     3.2994     1.9645 S.o2    
  21 C21           -5.7283     4.8288     2.1276 C.3     
  22 C22           -2.5899     4.0449     6.6253 C.3     
  23 C23           -2.3914     5.3484     5.8476 C.3     
  24 C24           -7.0977     4.8782     1.4469 C.3     
  25 C25           -7.0041     4.7746     2.9705 C.3     
  26 O26           -4.2379     3.1805     0.6509 O.2     
  27 O27           -5.4463     2.2148     2.5816 O.2     
  28 C28           -3.9725     3.7498     7.1472 C.2     
  29 C29           -4.1645     2.7397     7.9589 C.2     
  30 C30            3.2133     1.5389     0.7593 C.ar    
  31 C31            4.6264     1.5169     0.8179 C.ar    
  32 C32            2.6181     2.1847    -0.2926 C.ar    
  33 C33            3.4113     2.8036    -1.2682 C.ar    
  34 N34            4.7319     2.7813    -1.2017 N.ar    
  35 C35            5.3682     2.1628    -0.2019 C.ar    
  36 C36            2.7569     3.4967    -2.3976 C.2     
  37 S37            1.0178     3.6332    -2.6439 S.3     
  38 C38            6.7718     2.1466    -0.1421 C.ar    
  39 C39            7.4008     1.5027     0.8989 C.ar    
  40 C40            6.6587     0.8642     1.8972 C.ar    
  41 C41            5.2981     0.8692     1.8649 C.ar    
  42 C42            7.5839     2.8300    -1.2120 C.3     
  43 O43            8.7578     1.4868     0.9570 O.3     
  44 C44            9.3519     0.8023     2.0618 C.3     
  45 N45            3.3734     4.1095    -3.3677 N.2     
  46 C46            2.6279     4.6713    -4.2882 C.2     
  47 C47            1.3045     4.5505    -4.1214 C.2     
  48 C48            3.2230     5.4096    -5.4595 C.3     
  49 C49            3.3268     4.4649    -6.6584 C.3     
  50 C50            2.3285     6.5969    -5.8217 C.3     
  51 C51           -1.8694    -2.5989     4.2581 C.3     
  52 C52           -2.0136    -3.2170     7.1740 C.3     
  53 N53            0.6839    -2.4222     3.1193 N.am    
  54 O54            0.4284    -3.9399     1.3657 O.3     
  55 C55            0.0097    -5.2684     0.9559 C.3     
  56 C56           -1.4698    -5.4637     1.2937 C.3     
  57 C57            0.2134    -5.4249    -0.5524 C.3     
  58 C58            0.8441    -6.3167     1.6947 C.3     
  59 C59            0.3129    -3.6386     2.6728 C.2     
  60 O60           -0.1258    -4.4632     3.4499 O.2     
  61 H61            0.7582     1.0534     0.5295 H       
  62 H62           -0.6622    -0.3130     1.9321 H       
  63 H63            1.2320     2.0241     4.3890 H       
  64 H64            1.1699     3.0738     2.3138 H       
  65 H65           -0.5004     2.5113     1.9791 H       
  66 H66           -0.3842     4.1420     4.4092 H       
  67 H67            1.1360    -1.8158     1.1556 H       
  68 H68            2.2435    -1.1997     2.4111 H       
  69 H69            1.4701    -2.4260     5.0548 H       
  70 H70           -0.4188    -3.9292     5.1339 H       
  71 H71            0.0111    -2.4818     7.1420 H       
  72 H72           -1.1993    -1.3300     6.5282 H       
  73 H73           -2.5537     3.5903     2.5195 H       
  74 H74           -5.1460     5.7498     2.1542 H       
  75 H75           -1.7673     3.7031     7.2534 H       
  76 H76           -1.4381     5.8639     5.9644 H       
  77 H77           -3.2608     5.9920     5.7137 H       
  78 H78           -7.4163     5.8319     1.0259 H       
  79 H79           -7.4207     3.9918     0.9010 H       
  80 H80           -7.2655     3.8200     3.4270 H       
  81 H81           -7.2612     5.6600     3.5519 H       
  82 H82           -4.8051     4.3711     6.8519 H       
  83 H83           -5.1554     2.5282     8.3328 H       
  84 H84           -3.3319     2.1184     8.2541 H       
  85 H85            1.5413     2.2164    -0.3697 H       
  86 H86            7.1713     0.3637     2.7055 H       
  87 H87            4.7367     0.3722     2.6422 H       
  88 H88            7.7665     3.8652    -0.9239 H       
  89 H89            8.5359     2.3128    -1.3315 H       
  90 H90            7.0367     2.8062    -2.1544 H       
  91 H91           10.4375     0.8656     1.9872 H       
  92 H92            9.0242     1.2633     2.9936 H       
  93 H93            9.0471    -0.2441     2.0473 H       
  94 H94            0.5445     4.9475    -4.7780 H       
  95 H95            4.2166     5.7709    -5.1944 H       
  96 H96            3.7572     4.9989    -7.5056 H       
  97 H97            3.9641     3.6190    -6.4003 H       
  98 H98            2.3332     4.1036    -6.9235 H       
  99 H99            2.2544     7.2700    -4.9676 H       
 100 H100           2.7589     7.1309    -6.6689 H       
 101 H101           1.3348     6.2356    -6.0868 H       
 102 H102          -1.6814    -2.9433     3.2412 H       
 103 H103          -2.7225    -3.1365     4.6720 H       
 104 H104          -2.0844    -1.5304     4.2459 H       
 105 H105          -1.7119    -4.2642     7.1950 H       
 106 H106          -2.2015    -2.8726     8.1910 H       
 107 H107          -2.9223    -3.1125     6.5812 H       
 108 H108          -2.0642    -4.7169     0.7673 H       
 109 H109          -1.7841    -6.4610     0.9861 H       
 110 H110          -1.6149    -5.3522     2.3682 H       
 111 H111           1.2674    -5.2858    -0.7930 H       
 112 H112          -0.1009    -6.4222    -0.8599 H       
 113 H113          -0.3810    -4.6781    -1.0787 H       
 114 H114           0.6989    -6.2052     2.7692 H       
 115 H115           0.5298    -7.3140     1.3871 H       
 116 H116           1.8981    -6.1776     1.4541 H       
@<TRIPOS>BOND
   1    1    2 1
   2    1    6 1
   3    1    5 1
   4    1   61 1
   5    2    3 1
   6    2   10 1
   7    2   62 1
   8    3    4 1
   9    3   12 am
  10    4    5 1
  11    4    7 1
  12    4   63 1
  13    5   64 1
  14    5   65 1
  15    6   30 1
  16    7    8 2
  17    7    9 am
  18    9   16 1
  19    9   66 1
  20   10   53 1
  21   10   67 1
  22   10   68 1
  23   11   12 1
  24   11   14 1
  25   11   53 1
  26   11   69 1
  27   12   13 2
  28   14   15 1
  29   14   51 1
  30   14   70 1
  31   15   52 1
  32   15   71 1
  33   15   72 1
  34   16   17 1
  35   16   22 1
  36   16   23 1
  37   17   18 am
  38   17   19 2
  39   18   20 am
  40   18   73 1
  41   20   21 1
  42   20   26 2
  43   20   27 2
  44   21   24 1
  45   21   25 1
  46   21   74 1
  47   22   23 1
  48   22   28 1
  49   22   75 1
  50   23   76 1
  51   23   77 1
  52   24   25 1
  53   24   78 1
  54   24   79 1
  55   25   80 1
  56   25   81 1
  57   28   29 2
  58   28   82 1
  59   29   83 1
  60   29   84 1
  61   30   31 ar
  62   30   32 ar
  63   31   35 ar
  64   31   41 ar
  65   32   33 ar
  66   32   85 1
  67   33   34 ar
  68   33   36 1
  69   34   35 ar
  70   35   38 ar
  71   36   45 2
  72   36   37 1
  73   37   47 1
  74   38   39 ar
  75   38   42 1
  76   39   40 ar
  77   39   43 1
  78   40   41 ar
  79   40   86 1
  80   41   87 1
  81   42   88 1
  82   42   89 1
  83   42   90 1
  84   43   44 1
  85   44   91 1
  86   44   92 1
  87   44   93 1
  88   45   46 1
  89   46   47 2
  90   46   48 1
  91   47   94 1
  92   48   49 1
  93   48   50 1
  94   48   95 1
  95   49   96 1
  96   49   97 1
  97   49   98 1
  98   50   99 1
  99   50  100 1
 100   50  101 1
 101   51  102 1
 102   51  103 1
 103   51  104 1
 104   52  105 1
 105   52  106 1
 106   52  107 1
 107   53   59 am
 108   54   55 1
 109   54   59 1
 110   55   56 1
 111   55   57 1
 112   55   58 1
 113   56  108 1
 114   56  109 1
 115   56  110 1
 116   57  111 1
 117   57  112 1
 118   57  113 1
 119   58  114 1
 120   58  115 1
 121   58  116 1
 122   59   60 2

#	End of record

