#	Name: ASD01814459
#	Creating user name:	WinNT
#	Creation time:	15. 06. 2019 19:32

#	Modifying user name:	WinNT
#	Modification time:	15. 06. 2019 19:32

#	Program:	/corina/corina34_cracker 3.40 0067  02.08.2006

@<TRIPOS>MOLECULE
ASD01814459
  60   65    0    0    0
SMALL
NO_CHARGES


@<TRIPOS>ATOM
   1 C1            -0.0167     1.3820     0.0096 C.ar    
   2 C2             0.0021    -0.0041     0.0020 C.ar    
   3 C3             1.1969    -0.6936    -0.0131 C.ar    
   4 C4             2.3990     0.0033    -0.0208 C.ar    
   5 C5             2.3751     1.4118    -0.0130 C.ar    
   6 C6             1.1660     2.0940     0.0022 C.ar    
   7 N7             3.6100    -0.6578    -0.0354 N.pl3   
   8 N8             4.7453    -0.0611    -0.0426 N.2     
   9 C9             4.8825     1.2394    -0.0369 C.2     
  10 C10            3.6766     2.1035    -0.0217 C.2     
  11 C11            6.0120     2.1719    -0.0418 C.2     
  12 N12            5.4771     3.4117    -0.0300 N.am    
  13 N13            4.0818     3.3392    -0.0183 N.2     
  14 C14            3.5984    -2.1227    -0.0426 C.3     
  15 C15            3.5811    -2.6179    -1.4658 C.ar    
  16 C16            4.7713    -2.8578    -2.1393 C.ar    
  17 C17            4.7113    -3.3118    -3.4447 C.ar    
  18 C18            3.4677    -3.5114    -4.0350 C.ar    
  19 N19            2.3545    -3.2706    -3.3593 N.ar    
  20 C20            2.3816    -2.8431    -2.1113 C.ar    
  21 O21            7.1975     1.8861    -0.0537 O.2     
  22 C22            6.2083     4.5891    -0.0292 C.2     
  23 N23            3.3927    -3.9672    -5.3460 N.3     
  24 C24            7.5477     4.5453    -0.0407 C.2     
  25 C25            8.3157     5.7966    -0.0376 C.2     
  26 C26            7.7357     6.9273     0.3580 C.2     
  27 C27            6.2981     6.9270     0.8049 C.3     
  28 C28            5.4970     5.9164    -0.0217 C.3     
  29 C29            5.3506     6.4337    -1.4541 C.3     
  30 C30            1.9938    -4.1100    -5.7750 C.3     
  31 C31            1.9576    -4.5554    -7.2393 C.3     
  32 O32            2.6940    -5.7733    -7.3802 O.3     
  33 C33            4.0608    -5.6700    -6.9721 C.3     
  34 C34            4.1183    -5.2359    -5.5051 C.3     
  35 H35           -0.9605     1.9070     0.0169 H       
  36 H36           -0.9295    -0.5505     0.0083 H       
  37 H37            1.1979    -1.7736    -0.0185 H       
  38 H38            1.1508     3.1739     0.0085 H       
  39 H39            4.4902    -2.4957     0.4611 H       
  40 H40            2.7104    -2.4816     0.4777 H       
  41 H41            5.7225    -2.6934    -1.6551 H       
  42 H42            5.6177    -3.5082    -3.9981 H       
  43 H43            1.4534    -2.6572    -1.5914 H       
  44 H44            8.0595     3.5943    -0.0519 H       
  45 H45            9.3480     5.7995    -0.3549 H       
  46 H46            8.2989     7.8489     0.3588 H       
  47 H47            6.2472     6.6584     1.8601 H       
  48 H48            5.8756     7.9221     0.6656 H       
  49 H49            4.5081     5.7908     0.4193 H       
  50 H50            6.3384     6.5639    -1.8961 H       
  51 H51            4.7806     5.7154    -2.0434 H       
  52 H52            4.8285     7.3905    -1.4433 H       
  53 H53            1.4974    -4.8565    -5.1551 H       
  54 H54            1.4823    -3.1528    -5.6730 H       
  55 H55            0.9240    -4.7177    -7.5449 H       
  56 H56            2.4062    -3.7843    -7.8655 H       
  57 H57            4.5483    -6.6384    -7.0844 H       
  58 H58            4.5706    -4.9313    -7.5905 H       
  59 H59            5.1577    -5.1006    -5.2060 H       
  60 H60            3.6559    -6.0004    -4.8808 H       
@<TRIPOS>BOND
   1    1    2 ar
   2    1    6 ar
   3    1   35 1
   4    2    3 ar
   5    2   36 1
   6    3    4 ar
   7    3   37 1
   8    4    5 ar
   9    4    7 1
  10    5    6 ar
  11    5   10 1
  12    6   38 1
  13    7    8 1
  14    7   14 1
  15    8    9 2
  16    9   10 1
  17    9   11 1
  18   10   13 2
  19   11   12 am
  20   11   21 2
  21   12   13 1
  22   12   22 1
  23   14   15 1
  24   14   39 1
  25   14   40 1
  26   15   16 ar
  27   15   20 ar
  28   16   17 ar
  29   16   41 1
  30   17   18 ar
  31   17   42 1
  32   18   19 ar
  33   18   23 1
  34   19   20 ar
  35   20   43 1
  36   22   24 2
  37   22   28 1
  38   23   30 1
  39   23   34 1
  40   24   25 1
  41   24   44 1
  42   25   26 2
  43   25   45 1
  44   26   27 1
  45   26   46 1
  46   27   28 1
  47   27   47 1
  48   27   48 1
  49   28   29 1
  50   28   49 1
  51   29   50 1
  52   29   51 1
  53   29   52 1
  54   30   31 1
  55   30   53 1
  56   30   54 1
  57   31   32 1
  58   31   55 1
  59   31   56 1
  60   32   33 1
  61   33   34 1
  62   33   57 1
  63   33   58 1
  64   34   59 1
  65   34   60 1

#	End of record

