#	Name: ASD01815076
#	Creating user name:	WinNT
#	Creation time:	15. 06. 2019 19:33

#	Modifying user name:	WinNT
#	Modification time:	15. 06. 2019 19:33

#	Program:	/corina/corina34_cracker 3.40 0067  02.08.2006

@<TRIPOS>MOLECULE
ASD01815076
  73   78    0    0    0
SMALL
NO_CHARGES


@<TRIPOS>ATOM
   1 C1            -0.0169     1.3972     0.0097 C.2     
   2 C2             0.0021    -0.0041     0.0020 C.2     
   3 C3             1.1986    -0.6593    -0.0129 C.2     
   4 C4             2.3918     0.0821    -0.0204 C.2     
   5 N5             2.3437     1.4497    -0.0122 N.am    
   6 C6             1.1421     2.0937     0.0024 C.2     
   7 C7             3.6227    -0.5889    -0.0356 C.2     
   8 C8             4.7877     0.1218    -0.0425 C.2     
   9 C9             4.7345     1.5280    -0.0346 C.2     
  10 C10            3.4812     2.1736    -0.0189 C.2     
  11 O11            3.4258     3.3917    -0.0123 O.2     
  12 C12            5.9703     2.3140    -0.0413 C.2     
  13 O13            5.9124     3.6618    -0.0337 O.3     
  14 O14            7.0487     1.7516    -0.0537 O.2     
  15 C15            3.6593    -2.0954    -0.0439 C.3     
  16 N16            3.7787    -2.5747    -1.4274 N.3     
  17 C17            4.0548    -4.0165    -1.4628 C.3     
  18 C18            4.3164    -4.4518    -2.9065 C.3     
  19 C19            3.0893    -4.1270    -3.7628 C.3     
  20 C20            2.7945    -2.6273    -3.6699 C.3     
  21 C21            2.5770    -2.2449    -2.2042 C.3     
  22 N22            3.3561    -4.4905    -5.1608 N.3     
  23 H23            2.2307    -4.6903    -3.3974 H       
  24 H24            4.9321    -4.2334    -0.8534 H       
  25 H25            5.1835    -3.9184    -3.2959 H       
  26 C26            2.1593    -4.3030    -5.9909 C.3     
  27 C27            2.4295    -4.8265    -7.4034 C.3     
  28 C28            3.6151    -4.0676    -8.0056 C.3     
  29 C29            4.8356    -4.2392    -7.0970 C.3     
  30 C30            4.4957    -3.7328    -5.6934 C.3     
  31 C31            3.9241    -4.6195    -9.3734 C.2     
  32 N32            3.8988    -3.9004   -10.5279 N.pl3   
  33 C33            4.2387    -4.7591   -11.5541 C.ar    
  34 C34            4.4641    -6.0097   -10.9546 C.ar    
  35 N35            4.2593    -5.8520    -9.6216 N.2     
  36 C36            3.5711    -2.4785   -10.6582 C.3     
  37 C37            4.3816    -4.6157   -12.9275 C.ar    
  38 C38            4.7440    -5.7030   -13.6935 C.ar    
  39 C39            4.9661    -6.9381   -13.1010 C.ar    
  40 C40            4.8303    -7.0979   -11.7512 C.ar    
  41 C41            4.8480    -1.6465   -10.5241 C.3     
  42 H42           -0.9605     1.9226     0.0170 H       
  43 H43           -0.9233    -0.5609     0.0082 H       
  44 H44            1.2282    -1.7389    -0.0187 H       
  45 H45            1.1156     3.1733     0.0087 H       
  46 H46            5.7393    -0.3889    -0.0536 H       
  47 H47            6.7544     4.1373    -0.0385 H       
  48 H48            4.5153    -2.4412     0.5356 H       
  49 H49            2.7412    -2.4836     0.3971 H       
  50 H50            3.1960    -4.5605    -1.0695 H       
  51 H51            4.5059    -5.5249    -2.9344 H       
  52 H52            3.6377    -2.0651    -4.0714 H       
  53 H53            1.8966    -2.3968    -4.2433 H       
  54 H54            1.7251    -2.7971    -1.8073 H       
  55 H55            2.3809    -1.1750    -2.1332 H       
  56 H56            1.3247    -4.8512    -5.5539 H       
  57 H57            1.9123    -3.2424    -6.0377 H       
  58 H58            2.6630    -5.8902    -7.3588 H       
  59 H59            1.5463    -4.6729    -8.0234 H       
  60 H60            3.3671    -3.0092    -8.0864 H       
  61 H61            5.1070    -5.2937    -7.0475 H       
  62 H62            5.6714    -3.6661    -7.4981 H       
  63 H63            4.2377    -2.6749    -5.7416 H       
  64 H64            5.3580    -3.8668    -5.0402 H       
  65 H65            3.1202    -2.2975   -11.6340 H       
  66 H66            2.8683    -2.1943    -9.8749 H       
  67 H67            4.2093    -3.6569   -13.3938 H       
  68 H68            4.8556    -5.5930   -14.7621 H       
  69 H69            5.2492    -7.7816   -13.7133 H       
  70 H70            5.0058    -8.0635   -11.3004 H       
  71 H71            4.6042    -0.5885   -10.6211 H       
  72 H72            5.2988    -1.8275    -9.5484 H       
  73 H73            5.5508    -1.9306   -11.3074 H       
@<TRIPOS>BOND
   1    1    2 1
   2    1    6 2
   3    1   42 1
   4    2    3 2
   5    2   43 1
   6    3    4 1
   7    3   44 1
   8    4    5 1
   9    4    7 2
  10    5    6 1
  11    5   10 am
  12    6   45 1
  13    7    8 1
  14    7   15 1
  15    8    9 2
  16    8   46 1
  17    9   10 1
  18    9   12 1
  19   10   11 2
  20   12   13 1
  21   12   14 2
  22   13   47 1
  23   15   16 1
  24   15   48 1
  25   15   49 1
  26   16   17 1
  27   16   21 1
  28   17   18 1
  29   17   24 1
  30   17   50 1
  31   18   19 1
  32   18   25 1
  33   18   51 1
  34   19   23 1
  35   19   22 1
  36   19   20 1
  37   20   21 1
  38   20   52 1
  39   20   53 1
  40   21   54 1
  41   21   55 1
  42   22   26 1
  43   22   30 1
  44   26   27 1
  45   26   56 1
  46   26   57 1
  47   27   28 1
  48   27   58 1
  49   27   59 1
  50   28   29 1
  51   28   31 1
  52   28   60 1
  53   29   30 1
  54   29   61 1
  55   29   62 1
  56   30   63 1
  57   30   64 1
  58   31   32 1
  59   31   35 2
  60   32   33 1
  61   32   36 1
  62   33   34 ar
  63   33   37 ar
  64   34   35 1
  65   34   40 ar
  66   36   41 1
  67   36   65 1
  68   36   66 1
  69   37   38 ar
  70   37   67 1
  71   38   39 ar
  72   38   68 1
  73   39   40 ar
  74   39   69 1
  75   40   70 1
  76   41   71 1
  77   41   72 1
  78   41   73 1

#	End of record

