#	Name: ASD01913230
#	Creating user name:	WinNT
#	Creation time:	15. 06. 2019 20:01

#	Modifying user name:	WinNT
#	Modification time:	15. 06. 2019 20:01

#	Program:	/corina/corina34_cracker 3.40 0067  02.08.2006

@<TRIPOS>MOLECULE
ASD01913230
  43   46    0    0    0
SMALL
NO_CHARGES


@<TRIPOS>ATOM
   1 N1            -0.6663     2.4331    -2.0358 N.ar    
   2 C2            -0.9058     1.2666    -2.5933 C.ar    
   3 C3             0.0945     0.3187    -2.7027 C.ar    
   4 C4             1.3531     0.6176    -2.2096 C.ar    
   5 C5             1.5664     1.8619    -1.6254 C.ar    
   6 C6             2.9389     2.1631    -1.0816 C.3     
   7 N7             3.0389     3.5906    -0.7579 N.am    
   8 C8             1.9029     4.2038    -0.0500 C.3     
   9 C9             0.6848     4.1408    -0.9699 C.3     
  10 C10            0.5279     2.7622    -1.5577 C.ar    
  11 C11            4.1265     4.3116    -1.0953 C.2     
  12 O12            4.1395     5.5133    -0.9131 O.2     
  13 C13            5.3033     3.6409    -1.6869 C.ar    
  14 C14            6.0633     4.2919    -2.6565 C.ar    
  15 C15            7.1723     3.6526    -3.2094 C.ar    
  16 C16            7.5140     2.3624    -2.7867 C.ar    
  17 C17            6.7543     1.7243    -1.8249 C.ar    
  18 C18            5.6589     2.3556    -1.2706 C.ar    
  19 C19            7.9590     4.3135    -4.2068 C.1     
  20 C20            8.6040     4.8554    -5.0245 C.1     
  21 C21            9.3908     5.5163    -6.0219 C.ar    
  22 C22           10.5008     4.8690    -6.5713 C.ar    
  23 C23           11.2497     5.5210    -7.5338 C.ar    
  24 C24           10.8675     6.7994    -7.9185 C.ar    
  25 C25            9.7578     7.3818    -7.3341 C.ar    
  26 N26            9.0567     6.7392    -6.4227 N.ar    
  27 Cl27           8.8939     1.5628    -3.4724 Cl      
  28 H28           -1.8941     1.0466    -2.9691 H       
  29 H29           -0.1024    -0.6377    -3.1641 H       
  30 H30            2.1550    -0.1026    -2.2770 H       
  31 H31            3.1094     1.5739    -0.1805 H       
  32 H32            3.6896     1.9071    -1.8292 H       
  33 H33            1.7001     3.6528     0.8683 H       
  34 H34            2.1331     5.2428     0.1860 H       
  35 H35           -0.2093     4.3907    -0.3987 H       
  36 H36            0.8072     4.8632    -1.7770 H       
  37 H37            5.7943     5.2871    -2.9787 H       
  38 H38            7.0212     0.7288    -1.5023 H       
  39 H39            5.0723     1.8525    -0.5160 H       
  40 H40           10.7701     3.8742    -6.2486 H       
  41 H41           12.1131     5.0465    -7.9763 H       
  42 H42           11.4324     7.3344    -8.6675 H       
  43 H43            9.4594     8.3761    -7.6320 H       
@<TRIPOS>BOND
   1    1    2 ar
   2    1   10 ar
   3    2    3 ar
   4    2   28 1
   5    3    4 ar
   6    3   29 1
   7    4    5 ar
   8    4   30 1
   9    5    6 1
  10    5   10 ar
  11    6    7 1
  12    6   31 1
  13    6   32 1
  14    7    8 1
  15    7   11 am
  16    8    9 1
  17    8   33 1
  18    8   34 1
  19    9   10 1
  20    9   35 1
  21    9   36 1
  22   11   12 2
  23   11   13 1
  24   13   14 ar
  25   13   18 ar
  26   14   15 ar
  27   14   37 1
  28   15   16 ar
  29   15   19 1
  30   16   17 ar
  31   16   27 1
  32   17   18 ar
  33   17   38 1
  34   18   39 1
  35   19   20 3
  36   20   21 1
  37   21   22 ar
  38   21   26 ar
  39   22   23 ar
  40   22   40 1
  41   23   24 ar
  42   23   41 1
  43   24   25 ar
  44   24   42 1
  45   25   26 ar
  46   25   43 1

#	End of record

