#	Name: ASD01870056
#	Creating user name:	WinNT
#	Creation time:	15. 06. 2019 19:38

#	Modifying user name:	WinNT
#	Modification time:	15. 06. 2019 19:38

#	Program:	/corina/corina34_cracker 3.40 0067  02.08.2006

@<TRIPOS>MOLECULE
ASD01870056
  49   52    0    0    0
SMALL
NO_CHARGES


@<TRIPOS>ATOM
   1 C1            -0.0167     1.3774     0.0096 C.ar    
   2 C2             0.0021    -0.0041     0.0020 C.ar    
   3 N3             1.1354    -0.6695    -0.0124 N.ar    
   4 C4             2.3261    -0.0578    -0.0204 C.ar    
   5 C5             2.3957     1.3311    -0.0137 C.ar    
   6 C6             1.1851     2.0719     0.0019 C.ar    
   7 S7             3.9418    -0.7499    -0.0395 S.3     
   8 C8             4.7120     0.8266    -0.0385 C.2     
   9 C9             3.7719     1.8347    -0.0242 C.2     
  10 C10            6.0889     1.1773    -0.0506 C.2     
  11 N11            6.4256     2.4824    -0.0475 N.am    
  12 C12            5.4572     3.4333    -0.0332 C.2     
  13 N13            4.1962     3.1281    -0.0221 N.2     
  14 N14            1.2027     3.4594     0.0092 N.3     
  15 C15            7.8371     2.8747    -0.0592 C.3     
  16 O16            6.9500     0.3135    -0.0630 O.2     
  17 C17            0.5124     4.0008    -1.1691 C.3     
  18 C18            0.6190     3.9867     1.2498 C.3     
  19 C19            8.1233     3.7122    -1.3073 C.3     
  20 C20            9.6344     3.7870    -1.5353 C.3     
  21 C21           10.2507     2.4014    -1.3335 C.3     
  22 C22           11.1461     2.4168    -0.0930 C.3     
  23 C23           10.2746     2.3891     1.1643 C.3     
  24 C24            9.6625     3.7727     1.3910 C.3     
  25 C25            8.1474     3.7002     1.1912 C.3     
  26 H26           -0.9557     1.9109     0.0170 H       
  27 H27           -0.9315    -0.5470     0.0084 H       
  28 H28            5.7447     4.4743    -0.0305 H       
  29 H29            8.4622     1.9818    -0.0695 H       
  30 H30           -0.5244     3.6643    -1.1692 H       
  31 H31            0.5409     5.0900    -1.1383 H       
  32 H32            1.0084     3.6497    -2.0740 H       
  33 H33            1.1925     3.6255     2.1034 H       
  34 H34            0.6453     5.0762     1.2293 H       
  35 H35           -0.4139     3.6498     1.3373 H       
  36 H36            7.6478     3.2497    -2.1722 H       
  37 H37            7.7265     4.7179    -1.1689 H       
  38 H38            9.8319     4.1279    -2.5516 H       
  39 H39           10.0746     4.4872    -0.8254 H       
  40 H40            9.4567     1.6667    -1.1994 H       
  41 H41           10.8457     2.1376    -2.2079 H       
  42 H42           11.7968     1.5424    -0.1035 H       
  43 H43           11.7534     3.3220    -0.0944 H       
  44 H44            9.4781     1.6557     1.0382 H       
  45 H45           10.8862     2.1170     2.0244 H       
  46 H46            9.8795     4.1038     2.4066 H       
  47 H47           10.0892     4.4797     0.6796 H       
  48 H48            7.7482     4.7072     1.0701 H       
  49 H49            7.6884     3.2294     2.0606 H       
@<TRIPOS>BOND
   1    1    2 ar
   2    1    6 ar
   3    1   26 1
   4    2    3 ar
   5    2   27 1
   6    3    4 ar
   7    4    5 ar
   8    4    7 1
   9    5    6 ar
  10    5    9 1
  11    6   14 1
  12    7    8 1
  13    8    9 2
  14    8   10 1
  15    9   13 1
  16   10   11 am
  17   10   16 2
  18   11   12 1
  19   11   15 1
  20   12   13 2
  21   12   28 1
  22   14   17 1
  23   14   18 1
  24   15   19 1
  25   15   25 1
  26   15   29 1
  27   17   30 1
  28   17   31 1
  29   17   32 1
  30   18   33 1
  31   18   34 1
  32   18   35 1
  33   19   20 1
  34   19   36 1
  35   19   37 1
  36   20   21 1
  37   20   38 1
  38   20   39 1
  39   21   22 1
  40   21   40 1
  41   21   41 1
  42   22   23 1
  43   22   42 1
  44   22   43 1
  45   23   24 1
  46   23   44 1
  47   23   45 1
  48   24   25 1
  49   24   46 1
  50   24   47 1
  51   25   48 1
  52   25   49 1

#	End of record

