#	Name: ASD01900786
#	Creating user name:	WinNT
#	Creation time:	15. 06. 2019 19:52

#	Modifying user name:	WinNT
#	Modification time:	15. 06. 2019 19:52

#	Program:	/corina/corina34_cracker 3.40 0067  02.08.2006

@<TRIPOS>MOLECULE
ASD01900786
  55   59    0    0    0
SMALL
NO_CHARGES


@<TRIPOS>ATOM
   1 C1            -0.3605     2.2206    -0.6660 C.ar    
   2 C2            -0.4563     0.8349    -0.6309 C.ar    
   3 C3            -1.6819     0.2116    -0.7474 C.ar    
   4 C4            -2.8358     0.9686    -0.9012 C.ar    
   5 C5            -2.7365     2.3659    -0.9406 C.ar    
   6 O6            -4.0417     0.3685    -1.0044 O.3     
   7 C7            -5.1255     1.0302    -1.4444 C.2     
   8 C8            -5.1783     2.3815    -1.5222 C.2     
   9 C9            -3.9854     3.1494    -1.1196 C.2     
  10 C10           -6.3085     0.2513    -1.8610 C.2     
  11 N11           -7.4237     0.9174    -2.3131 N.2     
  12 C12           -8.6228     0.4024    -2.1790 C.2     
  13 C13           -8.6559    -0.9345    -1.5401 C.3     
  14 C14           -7.5337    -1.7944    -2.2150 C.3     
  15 C15           -6.2651    -1.1075    -1.7930 C.2     
  16 C16           -1.5027     2.9904    -0.8159 C.ar    
  17 C17           -9.8708    -1.7586    -1.4414 C.2     
  18 C18           -9.6634    -3.0699    -1.2763 C.2     
  19 S19           -7.8947    -3.3369    -1.2985 S.3     
  20 O20            0.8535     2.8213    -0.5476 O.3     
  21 C21            1.9877     1.9665    -0.3899 C.3     
  22 C22            3.2546     2.8164    -0.2738 C.3     
  23 N23            3.1858     3.6339     0.9448 N.3     
  24 C24            3.4456     2.8206     2.1395 C.3     
  25 C25            3.2233     3.6687     3.3939 C.3     
  26 C26            4.1643     4.8761     3.3610 C.3     
  27 C27            3.9065     5.6796     2.0833 C.3     
  28 C28            4.1091     4.7732     0.8670 C.3     
  29 F29            3.9265     5.6846     4.4777 F       
  30 N30           -4.0251     4.4463    -0.9312 N.2     
  31 O31           -2.8967     5.1200    -0.4038 O.3     
  32 H32            0.4371     0.2400    -0.5116 H       
  33 H33           -1.7437    -0.8663    -0.7192 H       
  34 H34           -6.0697     2.8828    -1.8693 H       
  35 H35           -9.5158     0.9128    -2.5082 H       
  36 H36           -8.3220    -0.7864    -0.5131 H       
  37 H37           -7.6305    -1.8837    -3.2970 H       
  38 H38           -5.3923    -1.6478    -1.4572 H       
  39 H39           -1.4329     4.0678    -0.8434 H       
  40 H40          -10.8622    -1.3340    -1.4981 H       
  41 H41          -10.4234    -3.8273    -1.1528 H       
  42 H42            1.8683     1.3671     0.5126 H       
  43 H43            2.0697     1.3084    -1.2549 H       
  44 H44            4.1265     2.1641    -0.2249 H       
  45 H45            3.3364     3.4676    -1.1440 H       
  46 H46            2.7671     1.9676     2.1528 H       
  47 H47            4.4757     2.4647     2.1197 H       
  48 H48            2.1897     4.0135     3.4215 H       
  49 H49            3.4314     3.0691     4.2801 H       
  50 H50            5.1986     4.5323     3.3727 H       
  51 H51            2.8836     6.0561     2.0903 H       
  52 H52            4.6027     6.5168     2.0332 H       
  53 H53            5.1360     4.4082     0.8531 H       
  54 H54            3.9123     5.3385    -0.0440 H       
  55 H55           -3.0206     6.0734    -0.3007 H       
@<TRIPOS>BOND
   1    1    2 ar
   2    1   20 1
   3    1   16 ar
   4    2    3 ar
   5    2   32 1
   6    3    4 ar
   7    3   33 1
   8    4    5 ar
   9    4    6 1
  10    5   16 ar
  11    5    9 1
  12    6    7 1
  13    7    8 2
  14    7   10 1
  15    8    9 1
  16    8   34 1
  17    9   30 2
  18   10   11 1
  19   10   15 2
  20   11   12 2
  21   12   13 1
  22   12   35 1
  23   13   14 1
  24   13   17 1
  25   13   36 1
  26   14   15 1
  27   14   19 1
  28   14   37 1
  29   15   38 1
  30   16   39 1
  31   17   18 2
  32   17   40 1
  33   18   19 1
  34   18   41 1
  35   20   21 1
  36   21   22 1
  37   21   42 1
  38   21   43 1
  39   22   23 1
  40   22   44 1
  41   22   45 1
  42   23   24 1
  43   23   28 1
  44   24   25 1
  45   24   46 1
  46   24   47 1
  47   25   26 1
  48   25   48 1
  49   25   49 1
  50   26   27 1
  51   26   29 1
  52   26   50 1
  53   27   28 1
  54   27   51 1
  55   27   52 1
  56   28   53 1
  57   28   54 1
  58   30   31 1
  59   31   55 1

#	End of record

