#	Name: ASD01148500
#	Creating user name:	WinNT
#	Creation time:	15. 06. 2019 19:02

#	Modifying user name:	WinNT
#	Modification time:	15. 06. 2019 19:02

#	Program:	/corina/corina34_cracker 3.40 0067  02.08.2006

@<TRIPOS>MOLECULE
ASD01148500
  51   55    0    0    0
SMALL
NO_CHARGES


@<TRIPOS>ATOM
   1 C1            -0.0180     1.4363     0.0451 C.ar    
   2 C2            -0.0166     0.0527     0.0405 C.ar    
   3 C3             1.1824    -0.6372     0.0176 C.ar    
   4 C4             2.3780     0.0559    -0.0008 C.ar    
   5 C5             2.3760     1.4384     0.0038 C.ar    
   6 C6             1.1783     2.1283     0.0267 C.ar    
   7 C7             3.6800     2.1935    -0.0157 C.3     
   8 O8             4.6901     1.4604    -0.7379 O.3     
   9 C9             3.5604     3.4832    -0.8622 C.3     
  10 C10            4.0470     3.0294    -2.2254 C.2     
  11 N11            4.6599     1.9008    -2.0811 N.2     
  12 C12            3.8537     3.7505    -3.4950 C.ar    
  13 C13            4.3769     3.1973    -4.7418 C.ar    
  14 C14            3.1684     4.9574    -3.5155 C.ar    
  15 C15            2.9724     5.6560    -4.6935 C.ar    
  16 C16            3.4526     5.1800    -5.9060 C.ar    
  17 C17            4.1766     3.9116    -5.9466 C.ar    
  18 C18            3.2285     5.9462    -7.1448 C.2     
  19 O19            3.7405     5.5820    -8.1859 O.2     
  20 N20            2.4561     7.0504    -7.1238 N.am    
  21 C21            4.6782     3.3930    -7.1470 C.ar    
  22 C22            5.0690     1.9798    -4.7692 C.ar    
  23 C23            4.1463     2.5122     1.4062 C.3     
  24 F24            4.3115     1.3209     2.1208 F       
  25 F25            5.3646     3.1980     1.3548 F       
  26 F26            3.1890     3.3092     2.0432 F       
  27 Cl27          -1.5187    -0.8172     0.0642 Cl      
  28 C28            2.2450     7.7721    -8.2906 C.ar    
  29 N29            1.4833     8.8547    -8.2520 N.ar    
  30 N30            2.8146     7.3644    -9.4145 N.ar    
  31 C31            2.6341     8.0289   -10.5439 C.ar    
  32 C32            1.8380     9.1637   -10.5407 C.ar    
  33 C33            1.2618     9.5651    -9.3456 C.ar    
  34 C34            5.5400     1.4997    -5.9550 C.ar    
  35 C35            5.3477     2.2054    -7.1397 C.ar    
  36 H36           -0.9537     1.9754     0.0585 H       
  37 H37            1.1841    -1.7172     0.0144 H       
  38 H38            3.3140    -0.4825    -0.0183 H       
  39 H39            1.1773     3.2083     0.0303 H       
  40 H40            2.5243     3.8180    -0.9130 H       
  41 H41            4.2028     4.2685    -0.4638 H       
  42 H42            2.7795     5.3598    -2.5918 H       
  43 H43            2.4337     6.5918    -4.6694 H       
  44 H44            2.0477     7.3409    -6.2933 H       
  45 H45            4.5353     3.9305    -8.0728 H       
  46 H46            5.2288     1.4250    -3.8564 H       
  47 H47            3.1015     7.6917   -11.4572 H       
  48 H48            1.6737     9.7251   -11.4485 H       
  49 H49            0.6362    10.4447    -9.3086 H       
  50 H50            6.0735     0.5608    -5.9751 H       
  51 H51            5.7338     1.8061    -8.0659 H       
@<TRIPOS>BOND
   1    1    2 ar
   2    1    6 ar
   3    1   36 1
   4    2    3 ar
   5    2   27 1
   6    3    4 ar
   7    3   37 1
   8    4    5 ar
   9    4   38 1
  10    5    6 ar
  11    5    7 1
  12    6   39 1
  13    7    8 1
  14    7    9 1
  15    7   23 1
  16    8   11 1
  17    9   10 1
  18    9   40 1
  19    9   41 1
  20   10   11 2
  21   10   12 1
  22   12   13 ar
  23   12   14 ar
  24   13   22 ar
  25   13   17 ar
  26   14   15 ar
  27   14   42 1
  28   15   16 ar
  29   15   43 1
  30   16   17 ar
  31   16   18 1
  32   17   21 ar
  33   18   19 2
  34   18   20 am
  35   20   28 1
  36   20   44 1
  37   21   35 ar
  38   21   45 1
  39   22   34 ar
  40   22   46 1
  41   23   24 1
  42   23   25 1
  43   23   26 1
  44   28   29 ar
  45   28   30 ar
  46   29   33 ar
  47   30   31 ar
  48   31   32 ar
  49   31   47 1
  50   32   33 ar
  51   32   48 1
  52   33   49 1
  53   34   35 ar
  54   34   50 1
  55   35   51 1

#	End of record

