#	Name: ASD04880348
#	Creating user name:	WinNT
#	Creation time:	15. 06. 2019 20:53

#	Modifying user name:	WinNT
#	Modification time:	15. 06. 2019 20:53

#	Program:	/corina/corina34_cracker 3.40 0067  02.08.2006

@<TRIPOS>MOLECULE
ASD04880348
  51   53    0    0    0
SMALL
NO_CHARGES


@<TRIPOS>ATOM
   1 C1            -0.0055     1.3700     0.3021 C.ar    
   2 C2             0.0099    -0.0227     0.2682 C.ar    
   3 C3            -1.1789    -0.7262     0.2198 C.ar    
   4 C4            -2.3945    -0.0373     0.2055 C.ar    
   5 C5            -2.4023     1.3596     0.2401 C.ar    
   6 C6            -1.2123     2.0543     0.2936 C.ar    
   7 O7             1.1648     2.0600     0.3492 O.3     
   8 C8             1.1359    -2.1174     0.2457 C.3     
   9 O9             1.1948    -0.6901     0.2823 O.3     
  10 C10            1.0763     3.4858     0.3820 C.3     
  11 C11           -3.6655    -0.7822     0.1534 C.2     
  12 N12           -3.7743    -2.0657     0.1186 N.2     
  13 N13           -5.0892    -2.5244     0.0725 N.am    
  14 C14           -5.9975    -1.3667     0.0774 C.3     
  15 C15           -5.0426    -0.1581     0.1392 C.3     
  16 C16           -5.4673    -3.8174     0.0297 C.2     
  17 O17           -6.6460    -4.1086     0.0955 O.2     
  18 C18           -4.4492    -4.8813    -0.0973 C.ar    
  19 C19           -3.1105    -4.5468    -0.3173 C.ar    
  20 C20           -4.8212    -6.2198     0.0077 C.ar    
  21 C21           -3.8551    -7.2165    -0.1133 C.ar    
  22 C22           -2.5215    -6.8683    -0.3388 C.ar    
  23 C23           -2.1584    -5.5394    -0.4362 C.ar    
  24 C24           -4.2409    -8.6396    -0.0026 C.2     
  25 O25           -5.4018    -8.9411     0.1940 O.2     
  26 N26           -3.3051    -9.6025    -0.1199 N.am    
  27 C27           -6.8344    -1.3336    -1.2030 C.3     
  28 C28           -6.9007    -1.3962     1.3120 C.3     
  29 H29           -1.1683    -1.8059     0.1928 H       
  30 H30           -3.3402     1.8949     0.2291 H       
  31 H31           -1.2196     3.1339     0.3203 H       
  32 H32            2.1474    -2.5233     0.2617 H       
  33 H33            0.5848    -2.4807     1.1131 H       
  34 H34            0.6306    -2.4369    -0.6658 H       
  35 H35            0.5641     3.8388    -0.5131 H       
  36 H36            0.5183     3.7950     1.2658 H       
  37 H37            2.0792     3.9113     0.4183 H       
  38 H38           -5.2160     0.4201     1.0468 H       
  39 H39           -5.1626     0.4695    -0.7438 H       
  40 H40           -2.8200    -3.5095    -0.3949 H       
  41 H41           -5.8538    -6.4837     0.1825 H       
  42 H42           -1.7716    -7.6399    -0.4324 H       
  43 H43           -1.1258    -5.2757    -0.6107 H       
  44 H44           -2.3786    -9.3619    -0.2769 H       
  45 H45           -3.5582   -10.5361    -0.0474 H       
  46 H46           -7.4453    -2.2344    -1.2612 H       
  47 H47           -7.4810    -0.4562    -1.1918 H       
  48 H48           -6.1731    -1.2866    -2.0682 H       
  49 H49           -6.2859    -1.3931     2.2121 H       
  50 H50           -7.5470    -0.5185     1.3104 H       
  51 H51           -7.5126    -2.2980     1.2931 H       
@<TRIPOS>BOND
   1    1    2 ar
   2    1    7 1
   3    1    6 ar
   4    2    3 ar
   5    2    9 1
   6    3    4 ar
   7    3   29 1
   8    4    5 ar
   9    4   11 1
  10    5    6 ar
  11    5   30 1
  12    6   31 1
  13    7   10 1
  14    8    9 1
  15    8   32 1
  16    8   33 1
  17    8   34 1
  18   10   35 1
  19   10   36 1
  20   10   37 1
  21   11   12 2
  22   11   15 1
  23   12   13 1
  24   13   14 1
  25   13   16 am
  26   14   15 1
  27   14   27 1
  28   14   28 1
  29   15   38 1
  30   15   39 1
  31   16   17 2
  32   16   18 1
  33   18   19 ar
  34   18   20 ar
  35   19   23 ar
  36   19   40 1
  37   20   21 ar
  38   20   41 1
  39   21   22 ar
  40   21   24 1
  41   22   23 ar
  42   22   42 1
  43   23   43 1
  44   24   25 2
  45   24   26 am
  46   26   44 1
  47   26   45 1
  48   27   46 1
  49   27   47 1
  50   27   48 1
  51   28   49 1
  52   28   50 1
  53   28   51 1

#	End of record

