#	Name: ASD01940630
#	Creating user name:	WinNT
#	Creation time:	15. 06. 2019 20:12

#	Modifying user name:	WinNT
#	Modification time:	15. 06. 2019 20:12

#	Program:	/corina/corina34_cracker 3.40 0067  02.08.2006

@<TRIPOS>MOLECULE
ASD01940630
  40   42    0    0    0
SMALL
NO_CHARGES


@<TRIPOS>ATOM
   1 C1             0.3263     0.9819     1.1556 C.ar    
   2 C2            -0.1487     0.2378     0.0912 C.ar    
   3 C3             0.6517     0.0186    -1.0170 C.ar    
   4 C4             1.9331     0.5441    -1.0644 C.ar    
   5 C5             2.4152     1.2924     0.0013 C.ar    
   6 C6             1.6072     1.5118     1.1159 C.ar    
   7 N7             2.0884     2.2666     2.1941 N.am    
   8 S8             1.6699     1.8577     3.7433 S.o2    
   9 C9             2.2837     0.1627     3.9456 C.3     
  10 O10            2.4118     2.7570     4.5557 O.2     
  11 O11            0.2490     1.8763     3.7390 O.2     
  12 F12            0.1828    -0.7095    -2.0539 F       
  13 F13            2.7127     0.3281    -2.1464 F       
  14 N14            3.7107     1.8250    -0.0432 N.pl3   
  15 C15            4.8083     1.0280     0.3086 C.ar    
  16 C16            6.0784     1.5899     0.3900 C.ar    
  17 C17            4.6275    -0.3207     0.5815 C.ar    
  18 C18            5.7091    -1.1066     0.9292 C.ar    
  19 C19            6.9783    -0.5480     1.0056 C.ar    
  20 C20            7.1601     0.8034     0.7374 C.ar    
  21 F21            6.2542     2.9038     0.1290 F       
  22 C22            1.9486    -0.5587     5.2526 C.3     
  23 C23            1.2511    -0.9663     3.9532 C.3     
  24 S24            8.3571    -1.5512     1.4498 S.3     
  25 C25            9.7431    -0.3816     1.4078 C.3     
  26 H26           -0.3025     1.1543     2.0165 H       
  27 H27           -1.1466    -0.1737     0.1245 H       
  28 H28            2.6665     3.0286     2.0330 H       
  29 H29            3.2524    -0.0439     3.4908 H       
  30 H30            3.8477     2.7452    -0.3174 H       
  31 H31            3.6408    -0.7559     0.5223 H       
  32 H32            5.5675    -2.1560     1.1421 H       
  33 H33            8.1471     1.2378     0.7965 H       
  34 H34            2.6968    -1.2402     5.6574 H       
  35 H35            1.3593    -0.0149     5.9909 H       
  36 H36            0.2030    -0.6906     3.8367 H       
  37 H37            1.5405    -1.9160     3.5032 H       
  38 H38            9.8351     0.0368     0.4055 H       
  39 H39            9.5623     0.4218     2.1218 H       
  40 H40           10.6647    -0.9009     1.6708 H       
@<TRIPOS>BOND
   1    1    2 ar
   2    1    6 ar
   3    1   26 1
   4    2    3 ar
   5    2   27 1
   6    3    4 ar
   7    3   12 1
   8    4    5 ar
   9    4   13 1
  10    5    6 ar
  11    5   14 1
  12    6    7 1
  13    7    8 am
  14    7   28 1
  15    8    9 1
  16    8   10 2
  17    8   11 2
  18    9   22 1
  19    9   23 1
  20    9   29 1
  21   14   15 1
  22   14   30 1
  23   15   16 ar
  24   15   17 ar
  25   16   21 1
  26   16   20 ar
  27   17   18 ar
  28   17   31 1
  29   18   19 ar
  30   18   32 1
  31   19   20 ar
  32   19   24 1
  33   20   33 1
  34   22   23 1
  35   22   34 1
  36   22   35 1
  37   23   36 1
  38   23   37 1
  39   24   25 1
  40   25   38 1
  41   25   39 1
  42   25   40 1

#	End of record

