#	Name: ASD00310196
#	Creating user name:	WinNT
#	Creation time:	15. 06. 2019 18:33

#	Modifying user name:	WinNT
#	Modification time:	15. 06. 2019 18:33

#	Program:	/corina/corina34_cracker 3.40 0067  02.08.2006

@<TRIPOS>MOLECULE
ASD00310196
  47   50    0    0    0
SMALL
NO_CHARGES


@<TRIPOS>ATOM
   1 N1            -0.0282     1.4150    -0.0406 N.pl3   
   2 C2            -0.0189     0.0610    -0.0609 C.2     
   3 C3             1.2682    -0.3918    -0.0754 C.2     
   4 C4             2.1315     0.8046    -0.0628 C.ar    
   5 C5             3.5084     0.9998    -0.0686 C.ar    
   6 C6             4.0180     2.2918    -0.0528 C.ar    
   7 C7             3.1479     3.3873    -0.0307 C.ar    
   8 C8             1.7850     3.1964    -0.0244 C.ar    
   9 C9             1.2608     1.9066    -0.0410 C.ar    
  10 C10            1.7069    -1.7917    -0.0990 C.2     
  11 O11            2.8936    -2.0569    -0.1097 O.2     
  12 O12            0.7942    -2.7843    -0.1088 O.3     
  13 C13            5.4855     2.5104    -0.0588 C.ar    
  14 C14            6.0565     3.3929    -0.9727 C.ar    
  15 C15            7.4270     3.5926    -0.9734 C.ar    
  16 C16            8.2281     2.9136    -0.0651 C.ar    
  17 C17            7.6620     2.0378     0.8419 C.ar    
  18 C18            6.2959     1.8375     0.8536 C.ar    
  19 O19            7.9878     4.4529    -1.8635 O.3     
  20 C20            7.1041     5.1168    -2.7691 C.3     
  21 C21            9.7192     3.1319    -0.0686 C.3     
  22 C22           10.1259     4.6087     0.0674 C.3     
  23 C23           11.2555     4.1306     0.9949 C.3     
  24 C24           10.3780     2.9057     1.3024 C.3     
  25 C25           10.4233     2.4055    -1.2164 C.3     
  26 O26           10.1098     1.0124    -1.1620 O.3     
  27 Cl27           3.7923     4.9992    -0.0104 Cl      
  28 H28           -0.8289     1.9625    -0.0313 H       
  29 H29           -0.8981    -0.5662    -0.0646 H       
  30 H30            4.1773     0.1521    -0.0849 H       
  31 H31            1.1212     4.0481    -0.0070 H       
  32 H32            1.1312    -3.6905    -0.1243 H       
  33 H33            5.4322     3.9198    -1.6791 H       
  34 H34            8.2894     1.5120     1.5464 H       
  35 H35            5.8561     1.1559     1.5665 H       
  36 H36            7.6792     5.7725    -3.4229 H       
  37 H37            6.5762     4.3764    -3.3701 H       
  38 H38            6.3828     5.7081    -2.2050 H       
  39 H39           10.4824     5.0509    -0.8629 H       
  40 H40            9.3787     5.2229     0.5700 H       
  41 H41           12.1782     3.8858     0.4689 H       
  42 H42           11.4173     4.7790     1.8561 H       
  43 H43            9.6998     3.0543     2.1426 H       
  44 H44           10.9382     1.9730     1.3691 H       
  45 H45           10.0862     2.8169    -2.1678 H       
  46 H46           11.5011     2.5393    -1.1242 H       
  47 H47           10.5232     0.4886    -1.8618 H       
@<TRIPOS>BOND
   1    1    2 1
   2    1    9 1
   3    1   28 1
   4    2    3 2
   5    2   29 1
   6    3    4 1
   7    3   10 1
   8    4    5 ar
   9    4    9 ar
  10    5    6 ar
  11    5   30 1
  12    6    7 ar
  13    6   13 1
  14    7    8 ar
  15    7   27 1
  16    8    9 ar
  17    8   31 1
  18   10   11 2
  19   10   12 1
  20   12   32 1
  21   13   14 ar
  22   13   18 ar
  23   14   15 ar
  24   14   33 1
  25   15   16 ar
  26   15   19 1
  27   16   17 ar
  28   16   21 1
  29   17   18 ar
  30   17   34 1
  31   18   35 1
  32   19   20 1
  33   20   36 1
  34   20   37 1
  35   20   38 1
  36   21   22 1
  37   21   24 1
  38   21   25 1
  39   22   23 1
  40   22   39 1
  41   22   40 1
  42   23   24 1
  43   23   41 1
  44   23   42 1
  45   24   43 1
  46   24   44 1
  47   25   26 1
  48   25   45 1
  49   25   46 1
  50   26   47 1

#	End of record

