#	Name: ASD01410758
#	Creating user name:	WinNT
#	Creation time:	15. 06. 2019 19:18

#	Modifying user name:	WinNT
#	Modification time:	15. 06. 2019 19:18

#	Program:	/corina/corina34_cracker 3.40 0067  02.08.2006

@<TRIPOS>MOLECULE
ASD01410758
 101  107    0    0    0
SMALL
NO_CHARGES


@<TRIPOS>ATOM
   1 C1            -0.2889     1.9078     0.4903 C.3     
   2 C2            -0.0673     0.4226     0.8551 C.3     
   3 N3            -0.6122     0.3151     2.2189 N.am    
   4 C4            -1.8220     1.1520     2.2482 C.3     
   5 C5            -1.6527     2.2221     1.1512 C.3     
   6 O6             0.7434     2.7251     1.0458 O.3     
   7 C7            -3.0381     0.3092     1.9621 C.2     
   8 O8            -2.9167    -0.8791     1.7522 O.2     
   9 N9            -4.2607     0.8760     1.9394 N.am    
  10 C10           -5.4323     0.0761     1.5737 C.3     
  11 C11           -5.4623    -0.4200     0.1510 C.2     
  12 N12           -4.5045    -0.0374    -0.7164 N.am    
  13 O13           -6.3485    -1.1635    -0.2133 O.2     
  14 S14           -4.4660    -0.6781    -2.2430 S.o2    
  15 C15           -5.9936    -0.0854    -3.0212 C.3     
  16 C16           -6.0334    -0.8295     2.6505 C.3     
  17 C17           -6.7686     0.4430     2.2223 C.3     
  18 C18           -6.3198    -0.6046    -4.4230 C.3     
  19 C19           -7.1245    -1.0970    -3.2184 C.3     
  20 O20           -3.3311    -0.0738    -2.8482 O.2     
  21 O21           -4.5246    -2.0825    -2.0351 O.2     
  22 C22           -6.6194    -2.1692     2.2004 C.3     
  23 C23           -7.0527    -2.9743     3.4272 C.3     
  24 C24            0.9720     3.9200     0.4467 C.ar    
  25 C25            2.0147     4.7667     0.8900 C.ar    
  26 C26            0.2025     4.3367    -0.6078 C.ar    
  27 C27            0.4594     5.5758    -1.2100 C.ar    
  28 N28            1.4339     6.3622    -0.7850 N.ar    
  29 C29            2.2200     6.0068     0.2362 C.ar    
  30 C30           -0.3778     6.0135    -2.3466 C.2     
  31 C31            3.2518     6.8515     0.6788 C.ar    
  32 C32            4.0457     6.4604     1.7328 C.ar    
  33 C33            3.8370     5.2323     2.3678 C.ar    
  34 C34            2.8419     4.3978     1.9608 C.ar    
  35 C35            3.4881     8.1776     0.0032 C.3     
  36 N36           -0.2466     7.1363    -2.9936 N.2     
  37 C37           -1.0820     7.3587    -3.9792 C.2     
  38 C38           -1.9832     6.3949    -4.2091 C.2     
  39 S39           -1.7084     5.0968    -3.0488 S.3     
  40 C40           -1.0317     8.6203    -4.8019 C.3     
  41 C41           -0.2019     8.3737    -6.0635 C.3     
  42 C42           -2.4523     9.0281    -5.1975 C.3     
  43 C43            1.4180     0.0904     0.8515 C.3     
  44 C44            1.6750    -1.1679     1.6802 C.3     
  45 C45            1.3230    -0.9093     3.1454 C.3     
  46 C46           -0.0832    -0.3737     3.2408 C.2     
  47 C47            1.4244    -2.2175     3.9323 C.3     
  48 C48            0.4466    -3.2401     3.3498 C.3     
  49 C49            2.8507    -2.7625     3.8343 C.3     
  50 O50           -0.7374    -0.5661     4.2438 O.2     
  51 O51            5.0436     7.2766     2.1607 O.3     
  52 C52            5.8333     6.8151     3.2587 C.3     
  53 H53           -0.3415     2.0363    -0.5908 H       
  54 H54           -0.6171    -0.2247     0.1718 H       
  55 H55           -1.9207     1.6300     3.2228 H       
  56 H56           -1.6387     3.2184     1.5931 H       
  57 H57           -2.4557     2.1434     0.4183 H       
  58 H58           -4.3648     1.8136     2.1651 H       
  59 H59           -3.8376     0.6133    -0.4466 H       
  60 H60           -6.2722     0.9422    -2.7877 H       
  61 H61           -5.5571    -0.8301     3.6310 H       
  62 H62           -6.7760     1.2793     2.9213 H       
  63 H63           -7.6695     0.3253     1.6202 H       
  64 H64           -6.8133     0.0813    -5.1115 H       
  65 H65           -5.6164    -1.3023    -4.8776 H       
  66 H66           -6.9505    -2.1186    -2.8805 H       
  67 H67           -8.1473    -0.7350    -3.1145 H       
  68 H68           -7.4828    -1.9911     1.5593 H       
  69 H69           -5.8650    -2.7282     1.6469 H       
  70 H70           -7.8071    -2.4153     3.9808 H       
  71 H71           -7.4702    -3.9288     3.1066 H       
  72 H72           -6.1893    -3.1524     4.0683 H       
  73 H73           -0.5990     3.7122    -0.9739 H       
  74 H74            4.4710     4.9438     3.1931 H       
  75 H75            2.6910     3.4521     2.4600 H       
  76 H76            2.8949     8.9476     0.4966 H       
  77 H77            4.5451     8.4356     0.0688 H       
  78 H78            3.1951     8.1090    -1.0444 H       
  79 H79           -2.7440     6.4089    -4.9755 H       
  80 H80           -0.5744     9.4179    -4.2164 H       
  81 H81           -0.1656     9.2862    -6.6586 H       
  82 H82            0.8101     8.0831    -5.7817 H       
  83 H83           -0.6592     7.5761    -6.6490 H       
  84 H84           -3.0435     9.2038    -4.2987 H       
  85 H85           -2.4159     9.9406    -5.7926 H       
  86 H86           -2.9096     8.2305    -5.7830 H       
  87 H87            1.7485    -0.0778    -0.1735 H       
  88 H88            1.9761     0.9242     1.2774 H       
  89 H89            1.0608    -1.9838     1.2991 H       
  90 H90            2.7270    -1.4428     1.6038 H       
  91 H91            2.0181    -0.1805     3.5625 H       
  92 H92            1.1770    -2.0328     4.9777 H       
  93 H93            0.6939    -3.4247     2.3045 H       
  94 H94            0.5188    -4.1721     3.9104 H       
  95 H95           -0.5696    -2.8518     3.4197 H       
  96 H96            3.1182    -2.8937     2.7858 H       
  97 H97            3.5411    -2.0593     4.3001 H       
  98 H98            2.9088    -3.7226     4.3470 H       
  99 H99            6.5920     7.5599     3.4989 H       
 100 H100           5.1923     6.6567     4.1260 H       
 101 H101           6.3178     5.8768     2.9888 H       
@<TRIPOS>BOND
   1    1    2 1
   2    1    6 1
   3    1    5 1
   4    1   53 1
   5    2    3 1
   6    2   43 1
   7    2   54 1
   8    3    4 1
   9    3   46 am
  10    4    5 1
  11    4    7 1
  12    4   55 1
  13    5   56 1
  14    5   57 1
  15    6   24 1
  16    7    8 2
  17    7    9 am
  18    9   10 1
  19    9   58 1
  20   10   11 1
  21   10   16 1
  22   10   17 1
  23   11   12 am
  24   11   13 2
  25   12   14 am
  26   12   59 1
  27   14   15 1
  28   14   20 2
  29   14   21 2
  30   15   18 1
  31   15   19 1
  32   15   60 1
  33   16   17 1
  34   16   22 1
  35   16   61 1
  36   17   62 1
  37   17   63 1
  38   18   19 1
  39   18   64 1
  40   18   65 1
  41   19   66 1
  42   19   67 1
  43   22   23 1
  44   22   68 1
  45   22   69 1
  46   23   70 1
  47   23   71 1
  48   23   72 1
  49   24   25 ar
  50   24   26 ar
  51   25   29 ar
  52   25   34 ar
  53   26   27 ar
  54   26   73 1
  55   27   28 ar
  56   27   30 1
  57   28   29 ar
  58   29   31 ar
  59   30   36 2
  60   30   39 1
  61   31   32 ar
  62   31   35 1
  63   32   33 ar
  64   32   51 1
  65   33   34 ar
  66   33   74 1
  67   34   75 1
  68   35   76 1
  69   35   77 1
  70   35   78 1
  71   36   37 1
  72   37   38 2
  73   37   40 1
  74   38   39 1
  75   38   79 1
  76   40   41 1
  77   40   42 1
  78   40   80 1
  79   41   81 1
  80   41   82 1
  81   41   83 1
  82   42   84 1
  83   42   85 1
  84   42   86 1
  85   43   44 1
  86   43   87 1
  87   43   88 1
  88   44   45 1
  89   44   89 1
  90   44   90 1
  91   45   46 1
  92   45   47 1
  93   45   91 1
  94   46   50 2
  95   47   48 1
  96   47   49 1
  97   47   92 1
  98   48   93 1
  99   48   94 1
 100   48   95 1
 101   49   96 1
 102   49   97 1
 103   49   98 1
 104   51   52 1
 105   52   99 1
 106   52  100 1
 107   52  101 1

#	End of record

