#	Name: ASD01901125
#	Creating user name:	WinNT
#	Creation time:	15. 06. 2019 19:53

#	Modifying user name:	WinNT
#	Modification time:	15. 06. 2019 19:53

#	Program:	/corina/corina34_cracker 3.40 0067  02.08.2006

@<TRIPOS>MOLECULE
ASD01901125
  57   61    0    0    0
SMALL
NO_CHARGES


@<TRIPOS>ATOM
   1 C1             3.7170     0.5499     0.9241 C.ar    
   2 C2             4.3696    -0.6636     0.8694 C.ar    
   3 C3             5.7073    -0.7272     0.5072 C.ar    
   4 C4             6.4085     0.4252     0.2031 C.ar    
   5 C5             5.7690     1.6515     0.2591 C.ar    
   6 C6             4.4092     1.7179     0.6117 C.ar    
   7 N7             6.4370     2.8389    -0.0188 N.pl3   
   8 C8             5.6736     3.9715    -0.5547 C.3     
   9 N9             4.4055     4.1129     0.1619 N.am    
  10 C10            3.7556     3.0373     0.6495 C.2     
  11 C11            3.8578     5.3887     0.3453 C.ar    
  12 C12            4.3688     6.2298     1.3248 C.ar    
  13 C13            3.8281     7.4876     1.5051 C.ar    
  14 C14            2.7744     7.9107     0.7081 C.ar    
  15 C15            2.2634     7.0710    -0.2707 C.ar    
  16 C16            2.8071     5.8153    -0.4562 C.ar    
  17 O17            2.6387     3.1553     1.1163 O.2     
  18 O18            2.2420     9.1491     0.8868 O.3     
  19 C19            6.4943     5.2548    -0.3950 C.3     
  20 C20            5.3961     3.7363    -2.0421 C.3     
  21 C21            4.6597     4.9492    -2.6157 C.3     
  22 N22            5.4819     6.1525    -2.4367 N.3     
  23 C23            5.7253     6.4242    -1.0143 C.3     
  24 C24            4.8681     7.3125    -3.0967 C.3     
  25 C25            5.6833     8.5460    -2.8050 C.ar    
  26 C26            1.1680     9.5244     0.0221 C.3     
  27 C27            6.7334     8.9063    -3.6360 C.ar    
  28 C28            7.4558    10.0489    -3.3287 C.ar    
  29 C29            7.1079    10.7858    -2.2122 C.ar    
  30 N30            6.1029    10.4130    -1.4444 N.ar    
  31 C31            5.3903     9.3353    -1.7093 C.ar    
  32 Br32           6.5791    -2.4034     0.4295 Br      
  33 F33            0.0873     8.6578     0.2175 F       
  34 F34            0.7730    10.8350     0.3109 F       
  35 F35            1.5924     9.4478    -1.3088 F       
  36 H36            2.6747     0.5942     1.2032 H       
  37 H37            3.8356    -1.5709     1.1104 H       
  38 H38            7.4501     0.3687    -0.0764 H       
  39 H39            7.3909     2.9171     0.1390 H       
  40 H40            5.1886     5.9003     1.9458 H       
  41 H41            4.2255     8.1419     2.2669 H       
  42 H42            1.4428     7.4010    -0.8905 H       
  43 H43            2.4121     5.1633    -1.2212 H       
  44 H44            6.6628     5.4499     0.6641 H       
  45 H45            7.4524     5.1398    -0.9019 H       
  46 H46            6.3391     3.5994    -2.5712 H       
  47 H47            4.7786     2.8460    -2.1609 H       
  48 H48            4.4729     4.7917    -3.6779 H       
  49 H49            3.7105     5.0772    -2.0953 H       
  50 H50            4.7722     6.5455    -0.4994 H       
  51 H51            6.3110     7.3379    -0.9140 H       
  52 H52            4.8370     7.1437    -4.1731 H       
  53 H53            3.8542     7.4499    -2.7209 H       
  54 H54            6.9827     8.3107    -4.5017 H       
  55 H55            8.2802    10.3592    -3.9536 H       
  56 H56            7.6659    11.6770    -1.9658 H       
  57 H57            4.5710     9.0642    -1.0599 H       
@<TRIPOS>BOND
   1    1    2 ar
   2    1    6 ar
   3    1   36 1
   4    2    3 ar
   5    2   37 1
   6    3    4 ar
   7    3   32 1
   8    4    5 ar
   9    4   38 1
  10    5    7 1
  11    5    6 ar
  12    6   10 1
  13    7    8 1
  14    7   39 1
  15    8    9 1
  16    8   20 1
  17    8   19 1
  18    9   10 am
  19    9   11 1
  20   10   17 2
  21   11   12 ar
  22   11   16 ar
  23   12   13 ar
  24   12   40 1
  25   13   14 ar
  26   13   41 1
  27   14   15 ar
  28   14   18 1
  29   15   16 ar
  30   15   42 1
  31   16   43 1
  32   18   26 1
  33   19   23 1
  34   19   44 1
  35   19   45 1
  36   20   21 1
  37   20   46 1
  38   20   47 1
  39   21   22 1
  40   21   48 1
  41   21   49 1
  42   22   23 1
  43   22   24 1
  44   23   50 1
  45   23   51 1
  46   24   25 1
  47   24   52 1
  48   24   53 1
  49   25   27 ar
  50   25   31 ar
  51   26   33 1
  52   26   34 1
  53   26   35 1
  54   27   28 ar
  55   27   54 1
  56   28   29 ar
  57   28   55 1
  58   29   30 ar
  59   29   56 1
  60   30   31 ar
  61   31   57 1

#	End of record

