#	Name: ASD01881181
#	Creating user name:	WinNT
#	Creation time:	15. 06. 2019 19:42

#	Modifying user name:	WinNT
#	Modification time:	15. 06. 2019 19:42

#	Program:	/corina/corina34_cracker 3.40 0067  02.08.2006

@<TRIPOS>MOLECULE
ASD01881181
  63   66    0    0    0
SMALL
NO_CHARGES


@<TRIPOS>ATOM
   1 Cl1            8.0365     4.6373     0.7223 Cl      
   2 N2            -0.0165     1.3118     0.0183 N.ar    
   3 C3             0.0029    -0.0054     0.0035 C.ar    
   4 N4             1.1325    -0.6838    -0.0198 N.ar    
   5 C5             2.3027    -0.0615    -0.0295 C.ar    
   6 C6             2.3317     1.3193    -0.0147 C.ar    
   7 C7             1.1170     2.0074     0.0099 C.ar    
   8 C8             3.6415     2.0646    -0.0250 C.3     
   9 O9             4.0990     2.2052    -1.3715 O.3     
  10 C10            5.2740     2.8580    -1.5579 C.ar    
  11 C11            5.7771     3.0300    -2.8443 C.ar    
  12 C12            6.9652     3.6906    -3.0327 C.ar    
  13 C13            7.6768     4.1940    -1.9383 C.ar    
  14 C14            7.1669     4.0193    -0.6473 C.ar    
  15 C15            5.9703     3.3587    -0.4652 C.ar    
  16 C16            7.7696     4.0397    -4.2601 C.3     
  17 N17            8.9558     4.7587    -3.7814 N.am    
  18 C18            8.8977     4.8452    -2.4414 C.2     
  19 O19            9.7349     5.3844    -1.7437 O.2     
  20 N20            1.0929     3.3925     0.0250 N.3     
  21 C21            0.5147     3.8987    -1.1508 C.3     
  22 C22            0.6570     5.4338    -1.2343 C.3     
  23 C23           -0.3296     6.0734    -0.2913 C.3     
  24 O24            0.2224     6.3119     1.0196 O.3     
  25 C25            1.0496     5.2647     1.5588 C.3     
  26 C26            0.4839     3.8974     1.2711 C.3     
  27 C27            4.0004    -1.1028    -1.5069 C.3     
  28 C28            3.5861    -0.8509    -0.0557 C.3     
  29 C29           -1.7659    -0.9960    -1.4244 C.3     
  30 C30           -1.3031    -0.7574     0.0142 C.3     
  31 C31            9.6871     6.7303    -5.0301 C.3     
  32 C32           10.0268     5.2945    -4.6253 C.3     
  33 H33            3.5015     3.0514     0.4161 H       
  34 H34            4.3799     1.5094     0.5535 H       
  35 H35            5.2330     2.6436    -3.6935 H       
  36 H36            5.5766     3.2238     0.5313 H       
  37 H37            8.0679     3.1313    -4.7835 H       
  38 H38            7.1853     4.6792    -4.9217 H       
  39 H39            1.0067     3.4478    -2.0126 H       
  40 H40           -0.5433     3.6374    -1.1687 H       
  41 H41            1.6697     5.7217    -0.9524 H       
  42 H42            0.4536     5.7636    -2.2531 H       
  43 H43           -0.6543     7.0242    -0.7142 H       
  44 H44           -1.1968     5.4203    -0.1940 H       
  45 H45            2.0445     5.3367     1.1194 H       
  46 H46            1.1296     5.3957     2.6379 H       
  47 H47           -0.5970     3.9665     1.1488 H       
  48 H48            0.7201     3.2227     2.0939 H       
  49 H49            4.9287    -1.6738    -1.5258 H       
  50 H50            3.2175    -1.6650    -2.0159 H       
  51 H51            4.1502    -0.1489    -2.0127 H       
  52 H52            4.3690    -0.2887     0.4533 H       
  53 H53            3.4364    -1.8047     0.4502 H       
  54 H54           -1.0146    -1.5803    -1.9556 H       
  55 H55           -2.7105    -1.5399    -1.4167 H       
  56 H56           -1.9024    -0.0379    -1.9259 H       
  57 H57           -1.1666    -1.7155     0.5156 H       
  58 H58           -2.0545    -0.1731     0.5454 H       
  59 H59           10.4840     7.1290    -5.6579 H       
  60 H60            8.7488     6.7392    -5.5846 H       
  61 H61            9.5866     7.3458    -4.1360 H       
  62 H62           10.9651     5.2856    -4.0707 H       
  63 H63           10.1273     4.6791    -5.5193 H       
@<TRIPOS>BOND
   1    1   14 1
   2    2    3 ar
   3    2    7 ar
   4    3    4 ar
   5    3   30 1
   6    4    5 ar
   7    5    6 ar
   8    5   28 1
   9    6    7 ar
  10    6    8 1
  11    7   20 1
  12    8    9 1
  13    8   33 1
  14    8   34 1
  15    9   10 1
  16   10   11 ar
  17   10   15 ar
  18   11   12 ar
  19   11   35 1
  20   12   13 ar
  21   12   16 1
  22   13   14 ar
  23   13   18 1
  24   14   15 ar
  25   15   36 1
  26   16   17 1
  27   16   37 1
  28   16   38 1
  29   17   18 am
  30   17   32 1
  31   18   19 2
  32   20   21 1
  33   20   26 1
  34   21   22 1
  35   21   39 1
  36   21   40 1
  37   22   23 1
  38   22   41 1
  39   22   42 1
  40   23   24 1
  41   23   43 1
  42   23   44 1
  43   24   25 1
  44   25   26 1
  45   25   45 1
  46   25   46 1
  47   26   47 1
  48   26   48 1
  49   27   28 1
  50   27   49 1
  51   27   50 1
  52   27   51 1
  53   28   52 1
  54   28   53 1
  55   29   30 1
  56   29   54 1
  57   29   55 1
  58   29   56 1
  59   30   57 1
  60   30   58 1
  61   31   32 1
  62   31   59 1
  63   31   60 1
  64   31   61 1
  65   32   62 1
  66   32   63 1

#	End of record

