#	Name: ASD02039164
#	Creating user name:	WinNT
#	Creation time:	15. 06. 2019 20:17

#	Modifying user name:	WinNT
#	Modification time:	15. 06. 2019 20:17

#	Program:	/corina/corina34_cracker 3.40 0067  02.08.2006

@<TRIPOS>MOLECULE
ASD02039164
  42   45    0    0    0
SMALL
NO_CHARGES


@<TRIPOS>ATOM
   1 N1            -0.0009     1.2803     0.2562 N.2     
   2 C2             0.0074    -0.0199     0.1294 C.2     
   3 N3             1.2987    -0.4143     0.1381 N.2     
   4 C4             2.0014     0.6837     0.2712 C.2     
   5 O5             1.1345     1.6988     0.3387 O.3     
   6 C6             3.5037     0.7832     0.3360 C.3     
   7 O7             4.0277     0.9457    -0.9835 O.3     
   8 C8             5.3779     1.0520    -1.1027 C.ar    
   9 N9            -1.1051    -0.8435     0.0088 N.pl3   
  10 C10           -2.3896    -0.3053     0.1297 C.ar    
  11 C11           -3.4559    -0.8917    -0.5399 C.ar    
  12 C12           -4.7236    -0.3574    -0.4183 C.ar    
  13 C13           -4.9320     0.7601     0.3690 C.ar    
  14 C14           -3.8726     1.3464     1.0371 C.ar    
  15 C15           -2.6034     0.8138     0.9243 C.ar    
  16 C16            6.1804     1.0002     0.0348 C.ar    
  17 C17            7.5497     1.1062    -0.0669 C.ar    
  18 C18            8.1435     1.2663    -1.3146 C.ar    
  19 C19            7.3366     1.3187    -2.4665 C.ar    
  20 C20            5.9471     1.2051    -2.3508 C.ar    
  21 N21            9.5139     1.3754    -1.4373 N.am    
  22 C22           10.0903     1.5311    -2.6418 C.2     
  23 C23            9.3258     1.5896    -3.8266 C.2     
  24 C24            7.9747     1.4885    -3.7733 C.2     
  25 O25           11.3036     1.6245    -2.7123 O.2     
  26 F26           -6.9728     0.7440     1.5809 F       
  27 F27           -6.2256     2.7204     0.7121 F       
  28 C28           -6.3166     1.3407     0.4990 C.3     
  29 F29           -7.0367     1.0967    -0.6754 F       
  30 H30            3.7850     1.6411     0.9468 H       
  31 H31            3.9094    -0.1265     0.7786 H       
  32 H32           -0.9906    -1.7919    -0.1593 H       
  33 H33           -3.2938    -1.7644    -1.1553 H       
  34 H34           -5.5531    -0.8127    -0.9390 H       
  35 H35           -4.0387     2.2194     1.6509 H       
  36 H36           -1.7765     1.2720     1.4466 H       
  37 H37            5.7242     0.8760     1.0058 H       
  38 H38            8.1621     1.0654     0.8217 H       
  39 H39            5.3233     1.2446    -3.2315 H       
  40 H40           10.0692     1.3395    -0.6428 H       
  41 H41            9.8188     1.7154    -4.7793 H       
  42 H42            7.3821     1.5319    -4.6751 H       
@<TRIPOS>BOND
   1    1    2 2
   2    1    5 1
   3    2    3 1
   4    2    9 1
   5    3    4 2
   6    4    5 1
   7    4    6 1
   8    6    7 1
   9    6   30 1
  10    6   31 1
  11    7    8 1
  12    8   16 ar
  13    8   20 ar
  14    9   10 1
  15    9   32 1
  16   10   11 ar
  17   10   15 ar
  18   11   12 ar
  19   11   33 1
  20   12   13 ar
  21   12   34 1
  22   13   14 ar
  23   13   28 1
  24   14   15 ar
  25   14   35 1
  26   15   36 1
  27   16   17 ar
  28   16   37 1
  29   17   18 ar
  30   17   38 1
  31   18   19 ar
  32   18   21 1
  33   19   20 ar
  34   19   24 1
  35   20   39 1
  36   21   22 am
  37   21   40 1
  38   22   23 1
  39   22   25 2
  40   23   24 2
  41   23   41 1
  42   24   42 1
  43   26   28 1
  44   27   28 1
  45   28   29 1

#	End of record

