#	Name: ASD08070244
#	Creating user name:	WinNT
#	Creation time:	15. 06. 2019 21:14

#	Modifying user name:	WinNT
#	Modification time:	15. 06. 2019 21:14

#	Program:	/corina/corina34_cracker 3.40 0067  02.08.2006

@<TRIPOS>MOLECULE
ASD08070244
  37   39    0    0    0
SMALL
NO_CHARGES


@<TRIPOS>ATOM
   1 N1             0.1662     1.1649     0.9229 N.am    
   2 C2             0.1398    -0.1416     0.5929 C.2     
   3 O3             1.1535    -0.6921     0.2085 O.2     
   4 N4            -1.0102    -0.8378     0.6891 N.am    
   5 C5            -1.0678    -2.1601     0.2342 C.ar    
   6 C6            -2.0700    -3.0086     0.6864 C.ar    
   7 C7            -2.1244    -4.3126     0.2353 C.ar    
   8 C8             1.3304     2.0551     0.8732 C.3     
   9 C9            -0.1264    -2.6248    -0.6745 C.ar    
  10 C10           -0.1863    -3.9303    -1.1219 C.ar    
  11 C11           -1.1819    -4.7741    -0.6655 C.ar    
  12 C12            0.8835     3.4202     1.3316 C.ar    
  13 C13           -0.4612     3.3693     1.6405 C.ar    
  14 C14           -0.9653     1.9698     1.3942 C.3     
  15 C15            1.5798     4.6087     1.4708 C.ar    
  16 C16            0.9314     5.7433     1.9186 C.ar    
  17 C17           -0.4152     5.6924     2.2279 C.ar    
  18 C18           -1.1107     4.5070     2.0884 C.ar    
  19 C19           -3.0968    -2.5068     1.6687 C.3     
  20 N20           -3.1922    -5.2175     0.7168 N.pl3   
  21 O21           -2.9371    -6.3821     0.9659 O.2     
  22 O22           -4.3260    -4.7975     0.8638 O.2     
  23 H23           -1.7979    -0.4225     1.0735 H       
  24 H24            2.1107     1.6801     1.5355 H       
  25 H25            1.7076     2.1133    -0.1477 H       
  26 H26            0.6515    -1.9661    -1.0314 H       
  27 H27            0.5456    -4.2924    -1.8287 H       
  28 H28           -1.2265    -5.7944    -1.0168 H       
  29 H29           -1.7530     1.9881     0.6410 H       
  30 H30           -1.3501     1.5470     2.3222 H       
  31 H31            2.6317     4.6488     1.2292 H       
  32 H32            1.4761     6.6695     2.0273 H       
  33 H33           -0.9230     6.5788     2.5780 H       
  34 H34           -2.1626     4.4674     2.3301 H       
  35 H35           -3.9867    -2.1815     1.1298 H       
  36 H36           -3.3623    -3.3083     2.3581 H       
  37 H37           -2.6842    -1.6676     2.2288 H       
@<TRIPOS>BOND
   1    1    2 am
   2    1    8 1
   3    1   14 1
   4    2    3 2
   5    2    4 am
   6    4    5 1
   7    4   23 1
   8    5    6 ar
   9    5    9 ar
  10    6    7 ar
  11    6   19 1
  12    7   20 1
  13    7   11 ar
  14    8   12 1
  15    8   24 1
  16    8   25 1
  17    9   10 ar
  18    9   26 1
  19   10   11 ar
  20   10   27 1
  21   11   28 1
  22   12   13 ar
  23   12   15 ar
  24   13   14 1
  25   13   18 ar
  26   14   29 1
  27   14   30 1
  28   15   16 ar
  29   15   31 1
  30   16   17 ar
  31   16   32 1
  32   17   18 ar
  33   17   33 1
  34   18   34 1
  35   19   35 1
  36   19   36 1
  37   19   37 1
  38   20   21 2
  39   20   22 2

#	End of record

