#	Name: ASD04880952
#	Creating user name:	WinNT
#	Creation time:	15. 06. 2019 20:53

#	Modifying user name:	WinNT
#	Modification time:	15. 06. 2019 20:53

#	Program:	/corina/corina34_cracker 3.40 0067  02.08.2006

@<TRIPOS>MOLECULE
ASD04880952
  73   77    0    0    0
SMALL
NO_CHARGES


@<TRIPOS>ATOM
   1 N1             1.6877     0.3346     1.6085 N.3     
   2 C2             2.2128     1.4206     0.7692 C.3     
   3 C3             3.0418     0.8250    -0.3712 C.3     
   4 N4             2.2015    -0.0869    -1.1598 N.3     
   5 C5             1.6764    -1.1729    -0.3205 C.3     
   6 C6             0.8473    -0.5774     0.8199 C.3     
   7 C7             2.9028    -0.5939    -2.2507 C.ar    
   8 C8             3.2096    -1.9481    -2.3099 C.ar    
   9 C9             3.9029    -2.4540    -3.3875 C.ar    
  10 C10            4.3001    -1.6061    -4.4247 C.ar    
  11 C11            3.9927    -0.2435    -4.3677 C.ar    
  12 C12            3.2922     0.2590    -3.2878 C.ar    
  13 N13            2.9776     1.6229    -3.2294 N.am    
  14 C14            5.0434    -2.1480    -5.5782 C.2     
  15 C15            3.8320     2.5338    -3.7359 C.2     
  16 O16            4.8355     2.1684    -4.3198 O.2     
  17 C17            3.5526     3.9652    -3.5835 C.2     
  18 C18            0.9842     0.8431     2.7028 C.ar    
  19 C19           -0.3881     0.6492     2.7994 C.ar    
  20 C20           -1.0804     1.1529     3.8828 C.ar    
  21 C21           -0.4093     1.8502     4.8709 C.ar    
  22 C22            0.9564     2.0450     4.7778 C.ar    
  23 C23            1.6560     1.5389     3.6997 C.ar    
  24 C24            3.1454     1.7464     3.6022 C.3     
  25 N25            5.3396    -3.4617    -5.6320 N.am    
  26 O26            5.3887    -1.4094    -6.4803 O.2     
  27 C27            6.0777    -3.9998    -6.7774 C.3     
  28 C28            4.3302     4.9882    -4.0459 C.2     
  29 C29            3.6872     6.1810    -3.6798 C.2     
  30 C30            2.5598     5.8383    -3.0184 C.2     
  31 O31            2.4795     4.5023    -2.9671 O.3     
  32 C32            1.5555     6.8007    -2.4387 C.3     
  33 C33            6.2811    -5.5048    -6.5916 C.3     
  34 C34            7.0519    -6.0668    -7.7878 C.3     
  35 N35            7.2468    -7.5078    -7.6098 N.pl3   
  36 C36            6.4039    -8.4998    -8.0332 C.2     
  37 C37            6.9621    -9.6688    -7.6652 C.2     
  38 N38            8.1144    -9.3980    -7.0344 N.2     
  39 C39            8.2943    -8.1059    -7.0026 C.2     
  40 H40            1.3832     1.9936     0.3550 H       
  41 H41            2.8417     2.0750     1.3727 H       
  42 H42            3.4083     1.6272    -1.0117 H       
  43 H43            3.8868     0.2747     0.0424 H       
  44 H44            1.0474    -1.8273    -0.9240 H       
  45 H45            2.5059    -1.7460     0.0938 H       
  46 H46            0.4808    -1.3795     1.4605 H       
  47 H47            0.0023    -0.0270     0.4063 H       
  48 H48            2.9042    -2.6052    -1.5091 H       
  49 H49            4.1398    -3.5068    -3.4306 H       
  50 H50            4.2984     0.4143    -5.1679 H       
  51 H51            2.1448     1.9116    -2.8244 H       
  52 H52           -0.9129     0.1054     2.0279 H       
  53 H53           -2.1472     1.0024     3.9586 H       
  54 H54           -0.9532     2.2437     5.7168 H       
  55 H55            1.4775     2.5899     5.5511 H       
  56 H56            3.3482     2.7168     3.1490 H       
  57 H57            3.5830     1.7128     4.5999 H       
  58 H58            3.5824     0.9597     2.9871 H       
  59 H59            5.0641    -4.0509    -4.9124 H       
  60 H60            5.5116    -3.8199    -7.6914 H       
  61 H61            7.0478    -3.5080    -6.8481 H       
  62 H62            5.2598     4.8971    -4.5880 H       
  63 H63            4.0293     7.1841    -3.8876 H       
  64 H64            0.7948     7.0261    -3.1862 H       
  65 H65            1.0840     6.3513    -1.5647 H       
  66 H66            2.0610     7.7209    -2.1459 H       
  67 H67            6.8471    -5.6848    -5.6776 H       
  68 H68            5.3110    -5.9966    -6.5209 H       
  69 H69            6.4859    -5.8868    -8.7018 H       
  70 H70            8.0221    -5.5750    -7.8584 H       
  71 H71            5.4703    -8.3699    -8.5604 H       
  72 H72            6.5536   -10.6520    -7.8463 H       
  73 H73            9.1396    -7.5987    -6.5615 H       
@<TRIPOS>BOND
   1    1    2 1
   2    1    6 1
   3    1   18 1
   4    2    3 1
   5    2   40 1
   6    2   41 1
   7    3    4 1
   8    3   42 1
   9    3   43 1
  10    4    5 1
  11    4    7 1
  12    5    6 1
  13    5   44 1
  14    5   45 1
  15    6   46 1
  16    6   47 1
  17    7    8 ar
  18    7   12 ar
  19    8    9 ar
  20    8   48 1
  21    9   10 ar
  22    9   49 1
  23   10   11 ar
  24   10   14 1
  25   11   12 ar
  26   11   50 1
  27   12   13 1
  28   13   15 am
  29   13   51 1
  30   14   25 am
  31   14   26 2
  32   15   16 2
  33   15   17 1
  34   17   28 2
  35   17   31 1
  36   18   19 ar
  37   18   23 ar
  38   19   20 ar
  39   19   52 1
  40   20   21 ar
  41   20   53 1
  42   21   22 ar
  43   21   54 1
  44   22   23 ar
  45   22   55 1
  46   23   24 1
  47   24   56 1
  48   24   57 1
  49   24   58 1
  50   25   27 1
  51   25   59 1
  52   27   33 1
  53   27   60 1
  54   27   61 1
  55   28   29 1
  56   28   62 1
  57   29   30 2
  58   29   63 1
  59   30   31 1
  60   30   32 1
  61   32   64 1
  62   32   65 1
  63   32   66 1
  64   33   34 1
  65   33   67 1
  66   33   68 1
  67   34   35 1
  68   34   69 1
  69   34   70 1
  70   35   36 1
  71   35   39 1
  72   36   37 2
  73   36   71 1
  74   37   38 1
  75   37   72 1
  76   38   39 2
  77   39   73 1

#	End of record

