#	Name: ASD01811629
#	Creating user name:	WinNT
#	Creation time:	15. 06. 2019 19:27

#	Modifying user name:	WinNT
#	Modification time:	15. 06. 2019 19:27

#	Program:	/corina/corina34_cracker 3.40 0067  02.08.2006

@<TRIPOS>MOLECULE
ASD01811629
  61   66    0    0    0
SMALL
NO_CHARGES


@<TRIPOS>ATOM
   1 C1            -0.0167     1.3784     0.0096 C.ar    
   2 C2             0.0021    -0.0041     0.0020 C.ar    
   3 C3             1.2024    -0.6840    -0.0134 C.ar    
   4 C4             2.4054     0.0169    -0.0208 C.ar    
   5 C5             2.3747     1.4099    -0.0129 C.ar    
   6 C6             1.1741     2.0834     0.0020 C.ar    
   7 N7             3.7266    -0.4372    -0.0349 N.am    
   8 C8             4.6129     0.5791    -0.0351 C.2     
   9 C9             3.8084     1.8453    -0.0211 C.3     
  10 C10            4.1336     2.7493    -1.2186 C.3     
  11 N11            5.3108     3.5312    -0.7898 N.am    
  12 C12            5.3516     3.5581     0.6808 C.3     
  13 C13            4.1498     2.7300     1.1897 C.3     
  14 C14            6.2016     4.1222    -1.6105 C.2     
  15 O15            6.0698     4.0341    -2.8129 O.2     
  16 C16            7.3615     4.8927    -1.0341 C.3     
  17 C17            8.2849     5.5052    -2.1004 C.3     
  18 C18            8.3708     6.7482    -1.1990 C.3     
  19 C19            7.0042     6.3326    -0.6292 C.3     
  20 O20            5.8223     0.4875    -0.0443 O.2     
  21 C21            4.1049    -1.8524    -0.0474 C.3     
  22 C22            4.2233    -2.3281    -1.4725 C.ar    
  23 C23            5.3691    -2.0501    -2.2004 C.ar    
  24 C24            5.4817    -2.4851    -3.5076 C.ar    
  25 C25            4.4409    -3.2035    -4.0914 C.ar    
  26 C26            3.2918    -3.4796    -3.3542 C.ar    
  27 C27            3.1908    -3.0455    -2.0475 C.ar    
  28 F28            6.3770    -1.3527    -1.6321 F       
  29 C29            4.5558    -3.6730    -5.4953 C.2     
  30 C30            5.6527    -3.4675    -6.3545 C.2     
  31 N31            5.3797    -4.0285    -7.5026 N.2     
  32 N32            4.1084    -4.6096    -7.4227 N.pl3   
  33 C33            3.6204    -4.3870    -6.1857 C.2     
  34 C34            3.4281    -5.3384    -8.4961 C.3     
  35 H35           -0.9585     1.9068     0.0169 H       
  36 H36           -0.9273    -0.5542     0.0085 H       
  37 H37            1.2090    -1.7640    -0.0194 H       
  38 H38            1.1616     3.1634     0.0078 H       
  39 H39            4.3761     2.1471    -2.0942 H       
  40 H40            3.2951     3.4120    -1.4328 H       
  41 H41            6.2829     3.1152     1.0338 H       
  42 H42            5.2701     4.5857     1.0350 H       
  43 H43            3.3119     3.3800     1.4415 H       
  44 H44            4.4367     2.1190     2.0456 H       
  45 H45            7.8944     4.3397    -0.2605 H       
  46 H46            9.2333     4.9795    -2.2107 H       
  47 H47            7.7890     5.6903    -3.0532 H       
  48 H48            9.1797     6.7037    -0.4698 H       
  49 H49            8.3467     7.6889    -1.7491 H       
  50 H50            6.1582     6.7438    -1.1799 H       
  51 H51            6.9188     6.4748     0.4481 H       
  52 H52            5.0626    -1.9770     0.4580 H       
  53 H53            3.3431    -2.4368     0.4686 H       
  54 H54            6.3745    -2.2681    -4.0752 H       
  55 H55            2.4823    -4.0360    -3.8031 H       
  56 H56            2.3000    -3.2600    -1.4758 H       
  57 H57            6.5610    -2.9379    -6.1076 H       
  58 H58            2.6602    -4.7098    -5.8112 H       
  59 H59            3.6808    -6.3969    -8.4334 H       
  60 H60            2.3500    -5.2155    -8.3922 H       
  61 H61            3.7472    -4.9452    -9.4613 H       
@<TRIPOS>BOND
   1    1    2 ar
   2    1    6 ar
   3    1   35 1
   4    2    3 ar
   5    2   36 1
   6    3    4 ar
   7    3   37 1
   8    4    5 ar
   9    4    7 1
  10    5    6 ar
  11    5    9 1
  12    6   38 1
  13    7    8 am
  14    7   21 1
  15    8    9 1
  16    8   20 2
  17    9   10 1
  18    9   13 1
  19   10   11 1
  20   10   39 1
  21   10   40 1
  22   11   12 1
  23   11   14 am
  24   12   13 1
  25   12   41 1
  26   12   42 1
  27   13   43 1
  28   13   44 1
  29   14   15 2
  30   14   16 1
  31   16   17 1
  32   16   19 1
  33   16   45 1
  34   17   18 1
  35   17   46 1
  36   17   47 1
  37   18   19 1
  38   18   48 1
  39   18   49 1
  40   19   50 1
  41   19   51 1
  42   21   22 1
  43   21   52 1
  44   21   53 1
  45   22   23 ar
  46   22   27 ar
  47   23   24 ar
  48   23   28 1
  49   24   25 ar
  50   24   54 1
  51   25   26 ar
  52   25   29 1
  53   26   27 ar
  54   26   55 1
  55   27   56 1
  56   29   30 1
  57   29   33 2
  58   30   31 2
  59   30   57 1
  60   31   32 1
  61   32   33 1
  62   32   34 1
  63   33   58 1
  64   34   59 1
  65   34   60 1
  66   34   61 1

#	End of record

