#	Name: ASD02560348
#	Creating user name:	WinNT
#	Creation time:	15. 06. 2019 20:25

#	Modifying user name:	WinNT
#	Modification time:	15. 06. 2019 20:25

#	Program:	/corina/corina34_cracker 3.40 0067  02.08.2006

@<TRIPOS>MOLECULE
ASD02560348
  43   44    0    0    0
SMALL
NO_CHARGES


@<TRIPOS>ATOM
   1 C1             0.0669     1.5135    -0.0271 C.2     
   2 C2             0.0237     0.1086    -0.0541 C.2     
   3 C3             1.1661    -0.6081    -0.0622 C.2     
   4 N4             2.3808     0.0192    -0.0441 N.pl3   
   5 C5             2.4544     1.3914    -0.0180 C.2     
   6 C6             1.2675     2.1518    -0.0093 C.2     
   7 C7             3.6669    -0.4508    -0.0468 C.2     
   8 C8             4.4865     0.6309    -0.0225 C.2     
   9 N9             3.7336     1.7349    -0.0054 N.2     
  10 C10            5.9930     0.5933    -0.0155 C.3     
  11 N11            4.0620    -1.7937    -0.0697 N.am    
  12 C12            4.3763    -2.4862     1.1824 C.3     
  13 C13            3.0881    -3.0354     1.7988 C.3     
  14 C14            6.5247     1.2171    -1.3074 C.3     
  15 C15            3.4164    -3.7587     3.1064 C.3     
  16 C16            6.5173     1.3828     1.1855 C.3     
  17 C17            2.1282    -4.3078     3.7228 C.3     
  18 C18            4.1532    -2.4493    -1.2437 C.2     
  19 C19            3.9447    -1.7079    -2.5390 C.3     
  20 O20            4.4031    -3.6364    -1.2577 O.2     
  21 H21           -0.8502     2.0839    -0.0248 H       
  22 H22           -0.9293    -0.3994    -0.0682 H       
  23 H23            1.1211    -1.6869    -0.0827 H       
  24 H24            1.3113     3.2307     0.0112 H       
  25 H25            6.3303    -0.4409     0.0542 H       
  26 H26            5.0619    -3.3091     0.9803 H       
  27 H27            4.8423    -1.7874     1.8771 H       
  28 H28            2.4025    -2.2125     2.0009 H       
  29 H29            2.6221    -3.7342     1.1041 H       
  30 H30            6.1874     2.2513    -1.3772 H       
  31 H31            7.6144     1.1899    -1.3024 H       
  32 H32            6.1512     0.6547    -2.1631 H       
  33 H33            4.1020    -4.5816     2.9043 H       
  34 H34            3.8823    -3.0598     3.8011 H       
  35 H35            6.1385     0.9384     2.1059 H       
  36 H36            7.6070     1.3556     1.1906 H       
  37 H37            6.1800     2.4170     1.1158 H       
  38 H38            2.3620    -4.8231     4.6544 H       
  39 H39            1.4426    -3.4849     3.9249 H       
  40 H40            1.6622    -5.0067     3.0281 H       
  41 H41            4.9088    -1.3865    -2.9330 H       
  42 H42            3.4585    -2.3654    -3.2598 H       
  43 H43            3.3158    -0.8355    -2.3612 H       
@<TRIPOS>BOND
   1    1    2 1
   2    1    6 2
   3    1   21 1
   4    2    3 2
   5    2   22 1
   6    3    4 1
   7    3   23 1
   8    4    5 1
   9    4    7 1
  10    5    6 1
  11    5    9 2
  12    6   24 1
  13    7    8 2
  14    7   11 1
  15    8    9 1
  16    8   10 1
  17   10   14 1
  18   10   16 1
  19   10   25 1
  20   11   12 1
  21   11   18 am
  22   12   13 1
  23   12   26 1
  24   12   27 1
  25   13   15 1
  26   13   28 1
  27   13   29 1
  28   14   30 1
  29   14   31 1
  30   14   32 1
  31   15   17 1
  32   15   33 1
  33   15   34 1
  34   16   35 1
  35   16   36 1
  36   16   37 1
  37   17   38 1
  38   17   39 1
  39   17   40 1
  40   18   19 1
  41   18   20 2
  42   19   41 1
  43   19   42 1
  44   19   43 1

#	End of record

