#	Name: ASD02408038
#	Creating user name:	WinNT
#	Creation time:	15. 06. 2019 20:21

#	Modifying user name:	WinNT
#	Modification time:	15. 06. 2019 20:21

#	Program:	/corina/corina34_cracker 3.40 0067  02.08.2006

@<TRIPOS>MOLECULE
ASD02408038
  43   45    0    0    0
SMALL
NO_CHARGES


@<TRIPOS>ATOM
   1 C1             0.5438     0.6197    -0.0811 C.ar    
   2 C2             0.8133    -0.7159    -0.3128 C.ar    
   3 C3             1.6681     1.6231    -0.0625 C.3     
   4 C4             1.8793     2.1666    -1.4521 C.2     
   5 N5             2.8453     3.0839    -1.6526 N.am    
   6 N6             1.1237     1.7290    -2.4224 N.2     
   7 C7             1.2664     2.1757    -3.6768 C.2     
   8 C8             2.2516     3.1373    -3.9559 C.2     
   9 C9             3.0622     3.5917    -2.8841 C.2     
  10 N10            0.4585     1.6984    -4.6796 N.pl3   
  11 O11            3.9320     4.4251    -3.0703 O.2     
  12 C12            1.0076     1.4165    -6.0129 C.3     
  13 C13           -0.9700     1.4543    -4.4377 C.3     
  14 C14           -1.2999     0.0146    -4.8443 C.3     
  15 C15           -0.8590    -0.2163    -6.2915 C.3     
  16 C16            0.6514    -0.0226    -6.3986 C.3     
  17 C17           -0.2181    -1.6365    -0.3298 C.ar    
  18 C18           -1.5187    -1.2211    -0.1146 C.ar    
  19 C19           -1.7882     0.1148     0.1180 C.ar    
  20 C20           -0.7579     1.0361     0.1280 C.ar    
  21 C21            2.4357     3.6400    -5.2840 C.1     
  22 N22            2.5817     4.0388    -6.3376 N.1     
  23 C23            0.0757    -3.0926    -0.5834 C.3     
  24 F24            0.3191    -3.7381     0.6337 F       
  25 F25           -1.0222    -3.6867    -1.2149 F       
  26 F26            1.2029    -3.2049    -1.4044 F       
  27 H27            1.8296    -1.0405    -0.4809 H       
  28 H28            1.4146     2.4403     0.6127 H       
  29 H29            2.5820     1.1384     0.2808 H       
  30 H30            3.3887     3.3818    -0.9064 H       
  31 H31            0.5771     2.1065    -6.7387 H       
  32 H32            2.0912     1.5322    -5.9937 H       
  33 H33           -1.1907     1.5948    -3.3796 H       
  34 H34           -1.5650     2.1474    -5.0324 H       
  35 H35           -0.7730    -0.6785    -4.1885 H       
  36 H36           -2.3742    -0.1500    -4.7606 H       
  37 H37           -1.1149    -1.2325    -6.5914 H       
  38 H38           -1.3677     0.4936    -6.9438 H       
  39 H39            0.9704    -0.2096    -7.4240 H       
  40 H40            1.1558    -0.7180    -5.7277 H       
  41 H41           -2.3244    -1.9401    -0.1286 H       
  42 H42           -2.8045     0.4394     0.2857 H       
  43 H43           -0.9684     2.0797     0.3097 H       
@<TRIPOS>BOND
   1    1    2 ar
   2    1    3 1
   3    1   20 ar
   4    2   17 ar
   5    2   27 1
   6    3    4 1
   7    3   28 1
   8    3   29 1
   9    4    5 1
  10    4    6 2
  11    5    9 am
  12    5   30 1
  13    6    7 1
  14    7    8 2
  15    7   10 1
  16    8    9 1
  17    8   21 1
  18    9   11 2
  19   10   12 1
  20   10   13 1
  21   12   16 1
  22   12   31 1
  23   12   32 1
  24   13   14 1
  25   13   33 1
  26   13   34 1
  27   14   15 1
  28   14   35 1
  29   14   36 1
  30   15   16 1
  31   15   37 1
  32   15   38 1
  33   16   39 1
  34   16   40 1
  35   17   18 ar
  36   17   23 1
  37   18   19 ar
  38   18   41 1
  39   19   20 ar
  40   19   42 1
  41   20   43 1
  42   21   22 3
  43   23   24 1
  44   23   25 1
  45   23   26 1

#	End of record

