#	Name: ASD03430783
#	Creating user name:	WinNT
#	Creation time:	15. 06. 2019 20:41

#	Modifying user name:	WinNT
#	Modification time:	15. 06. 2019 20:41

#	Program:	/corina/corina34_cracker 3.40 0067  02.08.2006

@<TRIPOS>MOLECULE
ASD03430783
  56   62    0    0    0
SMALL
NO_CHARGES


@<TRIPOS>ATOM
   1 C1             2.5059     0.8174    -2.1436 C.ar    
   2 C2             2.0891    -0.4604    -1.8037 C.ar    
   3 C3             2.8752    -1.2554    -0.9967 C.ar    
   4 C4             4.0895    -0.7849    -0.5061 C.ar    
   5 C5             4.5074     0.4957    -0.8537 C.ar    
   6 C6             3.7211     1.2948    -1.6664 C.ar    
   7 C7             2.7183    -2.6596    -0.4780 C.3     
   8 C8             4.1255    -3.0090     0.0261 C.3     
   9 C9             0.7591    -3.6868     0.1733 C.ar    
  10 C10            1.6933    -2.7549     0.6127 C.ar    
  11 C11            2.2558    -3.6127    -1.5425 C.2     
  12 N12            1.1160    -4.1706    -1.0882 N.am    
  13 O13            2.8011    -3.8366    -2.6026 O.2     
  14 C14            1.5439    -2.1353     1.8454 C.ar    
  15 C15            0.4495    -2.4495     2.6514 C.ar    
  16 C16           -0.4767    -3.3760     2.2167 C.ar    
  17 C17           -0.3280    -3.9914     0.9900 C.ar    
  18 O18            4.6931    -1.7121     0.2914 O.3     
  19 O19            1.7202     1.5868    -2.9466 O.3     
  20 C20            1.9968     2.9915    -2.9616 C.3     
  21 C21            3.5135     3.1804    -3.1005 C.3     
  22 O22            4.1494     2.5473    -1.9857 O.3     
  23 C23            2.5450    -1.1412     2.3045 C.ar    
  24 C24            3.2562    -1.3597     3.4832 C.ar    
  25 C25            4.1860    -0.4340     3.9076 C.ar    
  26 C26            4.4141     0.7149     3.1619 C.ar    
  27 C27            3.7067     0.9355     1.9875 C.ar    
  28 C28            2.7802     0.0102     1.5551 C.ar    
  29 O29            5.3307     1.6252     3.5824 O.3     
  30 C30            4.9028     2.6413     4.3766 C.ar    
  31 C31            5.7783     3.6540     4.7419 C.ar    
  32 C32            5.3406     4.6860     5.5490 C.ar    
  33 C33            4.0315     4.7103     5.9933 C.ar    
  34 C34            3.1570     3.7024     5.6308 C.ar    
  35 C35            3.5880     2.6711     4.8192 C.ar    
  36 H36            1.1451    -0.8342    -2.1720 H       
  37 H37            5.4516     0.8696    -0.4862 H       
  38 H38            4.0734    -3.6027     0.9387 H       
  39 H39            4.6942    -3.5301    -0.7441 H       
  40 H40            0.6034    -4.8314    -1.5795 H       
  41 H41            0.3276    -1.9701     3.6115 H       
  42 H42           -1.3233    -3.6214     2.8407 H       
  43 H43           -1.0597    -4.7144     0.6608 H       
  44 H44            1.4893     3.4572    -3.8064 H       
  45 H45            1.6536     3.4438    -2.0310 H       
  46 H46            3.8576     2.7216    -4.0274 H       
  47 H47            3.7525     4.2439    -3.1054 H       
  48 H48            3.0789    -2.2530     4.0637 H       
  49 H49            4.7371    -0.6027     4.8209 H       
  50 H50            3.8856     1.8303     1.4099 H       
  51 H51            2.2305     0.1821     0.6414 H       
  52 H52            6.8012     3.6351     4.3957 H       
  53 H53            6.0217     5.4744     5.8336 H       
  54 H54            3.6915     5.5177     6.6249 H       
  55 H55            2.1350     3.7235     5.9795 H       
  56 H56            2.9046     1.8842     4.5363 H       
@<TRIPOS>BOND
   1    1    2 ar
   2    1    6 ar
   3    1   19 1
   4    2    3 ar
   5    2   36 1
   6    3    4 ar
   7    3    7 1
   8    4    5 ar
   9    4   18 1
  10    5    6 ar
  11    5   37 1
  12    6   22 1
  13    7    8 1
  14    7   10 1
  15    7   11 1
  16    8   18 1
  17    8   38 1
  18    8   39 1
  19    9   10 ar
  20    9   12 1
  21    9   17 ar
  22   10   14 ar
  23   11   12 am
  24   11   13 2
  25   12   40 1
  26   14   15 ar
  27   14   23 1
  28   15   16 ar
  29   15   41 1
  30   16   17 ar
  31   16   42 1
  32   17   43 1
  33   19   20 1
  34   20   21 1
  35   20   44 1
  36   20   45 1
  37   21   22 1
  38   21   46 1
  39   21   47 1
  40   23   24 ar
  41   23   28 ar
  42   24   25 ar
  43   24   48 1
  44   25   26 ar
  45   25   49 1
  46   26   27 ar
  47   26   29 1
  48   27   28 ar
  49   27   50 1
  50   28   51 1
  51   29   30 1
  52   30   31 ar
  53   30   35 ar
  54   31   32 ar
  55   31   52 1
  56   32   33 ar
  57   32   53 1
  58   33   34 ar
  59   33   54 1
  60   34   35 ar
  61   34   55 1
  62   35   56 1

#	End of record

