#	Name: ASD01884518
#	Creating user name:	WinNT
#	Creation time:	15. 06. 2019 19:48

#	Modifying user name:	WinNT
#	Modification time:	15. 06. 2019 19:48

#	Program:	/corina/corina34_cracker 3.40 0067  02.08.2006

@<TRIPOS>MOLECULE
ASD01884518
  42   44    0    0    0
SMALL
NO_CHARGES


@<TRIPOS>ATOM
   1 C1            -0.0164     1.3597     0.0095 C.2     
   2 C2             0.0021    -0.0041     0.0020 C.2     
   3 C3             1.2369    -0.6740    -0.0134 C.2     
   4 C4             2.3922     0.0384    -0.0206 C.2     
   5 N5             2.3674     1.3982    -0.0126 N.am    
   6 C6             1.1981     2.0656     0.0017 C.2     
   7 C7             3.6275     2.1453    -0.0201 C.3     
   8 O8             1.1934     3.2866     0.0087 O.2     
   9 C9             4.0463     2.4096    -1.4434 C.ar    
  10 C10            3.6277     3.5607    -2.0844 C.ar    
  11 C11            4.0115     3.8037    -3.3898 C.ar    
  12 C12            4.8147     2.8946    -4.0550 C.ar    
  13 C13            5.2333     1.7427    -3.4130 C.ar    
  14 C14            4.8535     1.5036    -2.1057 C.ar    
  15 Cl15           5.2967     3.1988    -5.6948 Cl      
  16 O16            1.2746    -2.0344    -0.0206 O.3     
  17 C17            2.5653    -2.6475    -0.0362 C.3     
  18 C18            2.4069    -4.1693    -0.0424 C.3     
  19 C19            3.7680    -4.8159    -0.0589 C.ar    
  20 C20            4.4040    -5.1185     1.1307 C.ar    
  21 C21            5.6525    -5.7116     1.1155 C.ar    
  22 C22            6.2649    -6.0026    -0.0891 C.ar    
  23 C23            5.6286    -5.7008    -1.2786 C.ar    
  24 C24            4.3782    -5.1116    -1.2635 C.ar    
  25 H25           -0.9561     1.8920     0.0169 H       
  26 H26           -0.9222    -0.5627     0.0082 H       
  27 H27            3.3399    -0.4794    -0.0324 H       
  28 H28            3.4910     3.0932     0.5004 H       
  29 H29            4.3987     1.5622     0.4832 H       
  30 H30            3.0004     4.2701    -1.5651 H       
  31 H31            3.6841     4.7028    -3.8906 H       
  32 H32            5.8604     1.0327    -3.9317 H       
  33 H33            5.1803     0.6045    -1.6044 H       
  34 H34            3.1053    -2.3348    -0.9299 H       
  35 H35            3.1226    -2.3438     0.8499 H       
  36 H36            1.8669    -4.4820     0.8514 H       
  37 H37            1.8496    -4.4731    -0.9285 H       
  38 H38            3.9255    -4.8913     2.0718 H       
  39 H39            6.1496    -5.9474     2.0449 H       
  40 H40            7.2407    -6.4653    -0.1009 H       
  41 H41            6.1073    -5.9278    -2.2198 H       
  42 H42            3.8811    -4.8759    -2.1928 H       
@<TRIPOS>BOND
   1    1    2 2
   2    1    6 1
   3    1   25 1
   4    2    3 1
   5    2   26 1
   6    3    4 2
   7    3   16 1
   8    4    5 1
   9    4   27 1
  10    5    6 am
  11    5    7 1
  12    6    8 2
  13    7    9 1
  14    7   28 1
  15    7   29 1
  16    9   10 ar
  17    9   14 ar
  18   10   11 ar
  19   10   30 1
  20   11   12 ar
  21   11   31 1
  22   12   13 ar
  23   12   15 1
  24   13   14 ar
  25   13   32 1
  26   14   33 1
  27   16   17 1
  28   17   18 1
  29   17   34 1
  30   17   35 1
  31   18   19 1
  32   18   36 1
  33   18   37 1
  34   19   20 ar
  35   19   24 ar
  36   20   21 ar
  37   20   38 1
  38   21   22 ar
  39   21   39 1
  40   22   23 ar
  41   22   40 1
  42   23   24 ar
  43   23   41 1
  44   24   42 1

#	End of record

