#	Name: ASD01260002
#	Creating user name:	WinNT
#	Creation time:	15. 06. 2019 19:15

#	Modifying user name:	WinNT
#	Modification time:	15. 06. 2019 19:15

#	Program:	/corina/corina34_cracker 3.40 0067  02.08.2006

@<TRIPOS>MOLECULE
ASD01260002
  12   11    0    0    0
SMALL
NO_CHARGES


@<TRIPOS>ATOM
   1 C1            -0.0184     1.5028     0.0103 C.2     
   2 C2             0.0021    -0.0041     0.0020 C.3     
   3 C3             1.0191    -0.4947    -1.0304 C.3     
   4 O4             1.0236     2.1234     0.0037 O.2     
   5 N5            -1.1946     2.1607     0.0195 N.am    
   6 I6             0.5581    -0.7280     1.9618 I       
   7 H7            -0.9880    -0.3794    -0.2565 H       
   8 H8             2.0092    -0.1193    -0.7718 H       
   9 H9             1.0339    -1.5845    -1.0364 H       
  10 H10            0.7388    -0.1296    -2.0185 H       
  11 H11           -2.0280     1.6644     0.0207 H       
  12 H12           -1.2077     3.1306     0.0248 H       
@<TRIPOS>BOND
   1    1    2 1
   2    1    4 2
   3    1    5 am
   4    2    3 1
   5    2    6 1
   6    2    7 1
   7    3    8 1
   8    3    9 1
   9    3   10 1
  10    5   11 1
  11    5   12 1

#	End of record

