#	Name: ASD01410418
#	Creating user name:	WinNT
#	Creation time:	15. 06. 2019 19:17

#	Modifying user name:	WinNT
#	Modification time:	15. 06. 2019 19:17

#	Program:	/corina/corina34_cracker 3.40 0067  02.08.2006

@<TRIPOS>MOLECULE
ASD01410418
  43   45    0    0    0
SMALL
NO_CHARGES


@<TRIPOS>ATOM
   1 S1            -0.1789     1.7676     0.0935 S.3     
   2 C2            -0.2434     0.0007     0.2159 C.2     
   3 N3             1.0193    -0.4265     0.3326 N.am    
   4 C4             2.0068     0.4533     0.3367 C.2     
   5 C5             1.5902     1.8526     0.2079 C.2     
   6 S6            -1.6514    -0.9728     0.1906 S.2     
   7 O7             3.1746     0.1253     0.4402 O.2     
   8 N8             1.2931    -1.7955     0.4499 N.am    
   9 S9             1.5527    -2.7073    -0.9078 S.o2    
  10 O10            1.9488    -3.9952    -0.4565 O.2     
  11 O11            0.4334    -2.4913    -1.7562 O.2     
  12 C12            2.9466    -2.0208    -1.7386 C.ar    
  13 C13            4.2192    -2.4717    -1.4420 C.ar    
  14 C14            5.3128    -1.9331    -2.0937 C.ar    
  15 C15            5.1337    -0.9437    -3.0424 C.ar    
  16 C16            3.8610    -0.4934    -3.3397 C.ar    
  17 C17            2.7671    -1.0351    -2.6911 C.ar    
  18 C18            2.3805     2.9645     0.1813 C.2     
  19 C19            1.7946     4.2458     0.1959 C.2     
  20 C20            2.5668     5.3453     0.0286 C.2     
  21 C21            1.9403     6.6613    -0.1642 C.ar    
  22 C22            2.4941     7.7985     0.4344 C.ar    
  23 C23            0.3083     4.3924     0.3976 C.3     
  24 C24            0.7902     6.7842    -0.9519 C.ar    
  25 C25            0.2089     8.0218    -1.1276 C.ar    
  26 C26            0.7599     9.1411    -0.5278 C.ar    
  27 C27            1.9004     9.0288     0.2487 C.ar    
  28 H28            1.3307    -2.2091     1.3265 H       
  29 H29            4.3591    -3.2447    -0.7008 H       
  30 H30            6.3071    -2.2849    -1.8615 H       
  31 H31            5.9882    -0.5224    -3.5511 H       
  32 H32            3.7212     0.2798    -4.0807 H       
  33 H33            1.7725    -0.6859    -2.9260 H       
  34 H34            3.4552     2.8625     0.1491 H       
  35 H35            3.6431     5.2557     0.0368 H       
  36 H36            3.3838     7.7126     1.0404 H       
  37 H37           -0.0410     3.6293     1.0931 H       
  38 H38            0.0926     5.3806     0.8040 H       
  39 H39           -0.2016     4.2735    -0.5584 H       
  40 H40            0.3595     5.9121    -1.4212 H       
  41 H41           -0.6787     8.1185    -1.7353 H       
  42 H42            0.3000    10.1079    -0.6699 H       
  43 H43            2.3239     9.9068     0.7136 H       
@<TRIPOS>BOND
   1    1    2 1
   2    1    5 1
   3    2    3 am
   4    2    6 2
   5    3    4 am
   6    3    8 1
   7    4    5 1
   8    4    7 2
   9    5   18 2
  10    8    9 am
  11    8   28 1
  12    9   10 2
  13    9   11 2
  14    9   12 1
  15   12   13 ar
  16   12   17 ar
  17   13   14 ar
  18   13   29 1
  19   14   15 ar
  20   14   30 1
  21   15   16 ar
  22   15   31 1
  23   16   17 ar
  24   16   32 1
  25   17   33 1
  26   18   19 1
  27   18   34 1
  28   19   20 2
  29   19   23 1
  30   20   21 1
  31   20   35 1
  32   21   22 ar
  33   21   24 ar
  34   22   27 ar
  35   22   36 1
  36   23   37 1
  37   23   38 1
  38   23   39 1
  39   24   25 ar
  40   24   40 1
  41   25   26 ar
  42   25   41 1
  43   26   27 ar
  44   26   42 1
  45   27   43 1

#	End of record

