#	Name: ASD04882607
#	Creating user name:	WinNT
#	Creation time:	15. 06. 2019 20:55

#	Modifying user name:	WinNT
#	Modification time:	15. 06. 2019 20:55

#	Program:	/corina/corina34_cracker 3.40 0067  02.08.2006

@<TRIPOS>MOLECULE
ASD04882607
  83   88    0    0    0
SMALL
NO_CHARGES


@<TRIPOS>ATOM
   1 C1            -0.0215     1.4013    -0.0093 C.ar    
   2 C2            -0.0116     0.0036    -0.0051 C.ar    
   3 C3            -1.2094    -0.7019    -0.0164 C.ar    
   4 C4            -2.4097    -0.0268    -0.0317 C.ar    
   5 C5            -2.4268     1.3708    -0.0363 C.ar    
   6 C6            -1.2240     2.0826    -0.0188 C.ar    
   7 N7             1.1997    -0.6831     0.0098 N.3     
   8 C8             1.3068    -1.5361     1.2016 C.3     
   9 C9             1.3723    -1.4733    -1.2172 C.3     
  10 C10            2.7462    -2.1475    -1.1975 C.3     
  11 N11            2.8533    -3.0006    -0.0057 N.3     
  12 C12            2.6807    -2.2104     1.2213 C.3     
  13 C13           -3.7127     2.0937    -0.0531 C.2     
  14 O14           -3.7266     3.3096    -0.0572 O.2     
  15 N15           -4.8720     1.4065    -0.0640 N.am    
  16 N16            1.1864     2.1110     0.0021 N.am    
  17 C17            4.0656    -3.6878     0.0093 C.ar    
  18 C18            4.3649    -4.5549     1.0608 C.ar    
  19 C19            1.2294     3.3599     0.5068 C.2     
  20 C20            2.5098     4.0698     0.5995 C.2     
  21 C21            3.7311     3.5988     0.2174 C.2     
  22 N22            4.6277     4.5576     0.4707 N.2     
  23 C23            4.0138     5.5881     0.9875 C.2     
  24 O24            2.7069     5.3214     1.0755 O.3     
  25 O25            0.2060     3.8988     0.8855 O.2     
  26 C26            4.6731     6.8751     1.4119 C.3     
  27 C27            5.7520     6.7929     2.4936 C.3     
  28 C28            6.1445     7.0708     1.0411 C.3     
  29 C29           -6.1490     2.1244    -0.0807 C.3     
  30 C30           -7.3004     1.1169    -0.0905 C.3     
  31 C31           -8.6340     1.8666    -0.1079 C.3     
  32 N32           -9.7364     0.9019    -0.1173 N.am    
  33 C33          -10.3200     0.4063     0.9876 C.2     
  34 C34          -11.4126    -0.5682     0.6064 C.3     
  35 C35          -11.1236    -0.9011    -0.8757 C.3     
  36 C36          -10.3498     0.3571    -1.3342 C.3     
  37 O37          -10.0148     0.6978     2.1246 O.2     
  38 C38            5.5808    -5.2153     1.0314 C.ar    
  39 C39            6.4314    -4.9728    -0.0479 C.ar    
  40 N40            6.0627    -4.1324    -1.0010 N.ar    
  41 N41            4.9329    -3.5238    -0.9762 N.ar    
  42 N42            7.6666    -5.6139    -0.1216 N.pl3   
  43 C43            8.0277    -6.6250     0.8752 C.3     
  44 C44            8.6039    -5.2768    -1.1958 C.3     
  45 H45           -1.1986    -1.7818    -0.0136 H       
  46 H46           -3.3385    -0.5777    -0.0404 H       
  47 H47           -1.2341     3.1625    -0.0223 H       
  48 H48            1.1882    -0.9263     2.0972 H       
  49 H49            0.5281    -2.2983     1.1745 H       
  50 H50            0.5943    -2.2347    -1.2718 H       
  51 H51            1.3015    -0.8175    -2.0850 H       
  52 H52            2.8648    -2.7574    -2.0931 H       
  53 H53            3.5250    -1.3854    -1.1704 H       
  54 H54            3.4587    -1.4489     1.2759 H       
  55 H55            2.7516    -2.8661     2.0891 H       
  56 H56           -4.8609     0.4366    -0.0608 H       
  57 H57            1.9917     1.7034    -0.3533 H       
  58 H58            3.6692    -4.7058     1.8730 H       
  59 H59            3.9364     2.6290    -0.2113 H       
  60 H60            4.0311     7.7560     1.4073 H       
  61 H61            5.8201     7.6199     3.2003 H       
  62 H62            5.9850     5.8080     2.8982 H       
  63 H63            6.6357     6.2687     0.4902 H       
  64 H64            6.4708     8.0807     0.7923 H       
  65 H65           -6.2239     2.7532     0.8065 H       
  66 H66           -6.2038     2.7475    -0.9734 H       
  67 H67           -7.2254     0.4881    -0.9777 H       
  68 H68           -7.2455     0.4938     0.8022 H       
  69 H69           -8.7089     2.4954     0.7793 H       
  70 H70           -8.6888     2.4897    -1.0006 H       
  71 H71          -11.3516    -1.4681     1.2184 H       
  72 H72          -12.3924    -0.1018     0.7086 H       
  73 H73          -10.5071    -1.7959    -0.9615 H       
  74 H74          -12.0505    -1.0123    -1.4384 H       
  75 H75          -11.0347     1.0812    -1.7754 H       
  76 H76           -9.5758     0.0834    -2.0512 H       
  77 H77            5.8629    -5.8973     1.8199 H       
  78 H78            7.7025    -7.6068     0.5311 H       
  79 H79            9.1088    -6.6283     1.0141 H       
  80 H80            7.5404    -6.3920     1.8220 H       
  81 H81            8.1643    -4.5107    -1.8346 H       
  82 H82            9.5316    -4.9013    -0.7640 H       
  83 H83            8.8133    -6.1675    -1.7881 H       
@<TRIPOS>BOND
   1    1    2 ar
   2    1   16 1
   3    1    6 ar
   4    2    3 ar
   5    2    7 1
   6    3    4 ar
   7    3   45 1
   8    4    5 ar
   9    4   46 1
  10    5    6 ar
  11    5   13 1
  12    6   47 1
  13    7    8 1
  14    7    9 1
  15    8   12 1
  16    8   48 1
  17    8   49 1
  18    9   10 1
  19    9   50 1
  20    9   51 1
  21   10   11 1
  22   10   52 1
  23   10   53 1
  24   11   12 1
  25   11   17 1
  26   12   54 1
  27   12   55 1
  28   13   14 2
  29   13   15 am
  30   15   29 1
  31   15   56 1
  32   16   19 am
  33   16   57 1
  34   17   18 ar
  35   17   41 ar
  36   18   38 ar
  37   18   58 1
  38   19   20 1
  39   19   25 2
  40   20   21 2
  41   20   24 1
  42   21   22 1
  43   21   59 1
  44   22   23 2
  45   23   24 1
  46   23   26 1
  47   26   27 1
  48   26   28 1
  49   26   60 1
  50   27   28 1
  51   27   61 1
  52   27   62 1
  53   28   63 1
  54   28   64 1
  55   29   30 1
  56   29   65 1
  57   29   66 1
  58   30   31 1
  59   30   67 1
  60   30   68 1
  61   31   32 1
  62   31   69 1
  63   31   70 1
  64   32   33 am
  65   32   36 1
  66   33   34 1
  67   33   37 2
  68   34   35 1
  69   34   71 1
  70   34   72 1
  71   35   36 1
  72   35   73 1
  73   35   74 1
  74   36   75 1
  75   36   76 1
  76   38   39 ar
  77   38   77 1
  78   39   40 ar
  79   39   42 1
  80   40   41 ar
  81   42   43 1
  82   42   44 1
  83   43   78 1
  84   43   79 1
  85   43   80 1
  86   44   81 1
  87   44   82 1
  88   44   83 1

#	End of record

