#	Name: ASD07300646
#	Creating user name:	WinNT
#	Creation time:	15. 06. 2019 21:10

#	Modifying user name:	WinNT
#	Modification time:	15. 06. 2019 21:10

#	Program:	/corina/corina34_cracker 3.40 0067  02.08.2006

@<TRIPOS>MOLECULE
ASD07300646
  26   28    0    0    0
SMALL
NO_CHARGES


@<TRIPOS>ATOM
   1 C1            -0.0172     1.4147     0.0098 C.2     
   2 C2             0.0021    -0.0041     0.0020 C.2     
   3 N3             1.1791     2.0906     0.0020 N.pl3   
   4 N4             1.1598    -0.6383    -0.0124 N.2     
   5 C5             2.3137     0.0281    -0.0199 C.2     
   6 C6             2.3469     1.3792    -0.0123 C.2     
   7 N7            -0.9908     2.3064     0.0292 N.2     
   8 C8            -0.4625     3.5321     0.0277 C.2     
   9 C9             0.8876     3.4200     0.0119 C.2     
  10 C10           -2.4698    -2.8380     0.0118 C.ar    
  11 C11           -1.2644    -2.1665     0.0030 C.ar    
  12 C12           -1.2671    -0.7677     0.0105 C.ar    
  13 C13           -2.5016    -0.1099     0.0268 C.ar    
  14 C14           -3.6595    -0.8604     0.0347 C.ar    
  15 N15           -3.6123    -2.1787     0.0271 N.ar    
  16 C16           -1.2378     4.8242     0.0461 C.3     
  17 Br17           2.1328     4.8431     0.0086 Br      
  18 H18            3.2423    -0.5232    -0.0317 H       
  19 H19            3.2949     1.8966    -0.0185 H       
  20 H20           -2.4781    -3.9179     0.0016 H       
  21 H21           -0.3328    -2.7128    -0.0092 H       
  22 H22           -2.5477     0.9691     0.0334 H       
  23 H23           -4.6174    -0.3617     0.0472 H       
  24 H24           -1.4089     5.1305     1.0781 H       
  25 H25           -0.6696     5.5963    -0.4726 H       
  26 H26           -2.1957     4.6804    -0.4538 H       
@<TRIPOS>BOND
   1    1    2 1
   2    1    3 1
   3    1    7 2
   4    2    4 2
   5    2   12 1
   6    3    6 1
   7    3    9 1
   8    4    5 1
   9    5    6 2
  10    5   18 1
  11    6   19 1
  12    7    8 1
  13    8    9 2
  14    8   16 1
  15    9   17 1
  16   10   11 ar
  17   10   15 ar
  18   10   20 1
  19   11   12 ar
  20   11   21 1
  21   12   13 ar
  22   13   14 ar
  23   13   22 1
  24   14   15 ar
  25   14   23 1
  26   16   24 1
  27   16   25 1
  28   16   26 1

#	End of record

