#	Name: ASD01152089
#	Creating user name:	WinNT
#	Creation time:	15. 06. 2019 19:05

#	Modifying user name:	WinNT
#	Modification time:	15. 06. 2019 19:05

#	Program:	/corina/corina34_cracker 3.40 0067  02.08.2006

@<TRIPOS>MOLECULE
ASD01152089
  59   62    0    0    0
SMALL
NO_CHARGES


@<TRIPOS>ATOM
   1 N1            -0.8716     1.6646     0.5668 N.2     
   2 C2            -1.1280     0.3852     0.7492 C.2     
   3 N3             0.0441    -0.2978     0.8551 N.pl3   
   4 C4             1.0711     0.6404     0.7269 C.2     
   5 C5             0.4477     1.8689     0.5461 C.2     
   6 S6            -2.7361    -0.3289     0.8423 S.3     
   7 C7            -3.7514     1.1532     0.6225 C.3     
   8 C8             2.4574     0.3915     0.7722 C.2     
   9 O9             3.2456     1.3111     0.6450 O.2     
  10 O10            2.9119    -0.8668     0.9566 O.3     
  11 C11            4.3292    -1.0460     0.9920 C.3     
  12 C12            4.6508    -2.5262     1.2075 C.3     
  13 N13            1.0845     3.0931     0.3735 N.am    
  14 C14            0.3555     4.2145     0.2075 C.2     
  15 C15            0.1922    -1.6762     1.0550 C.ar    
  16 C16           -0.2320    -2.5701     0.0808 C.ar    
  17 C17           -0.0846    -3.9287     0.2809 C.ar    
  18 C18            0.4848    -4.3991     1.4500 C.ar    
  19 C19            0.9079    -3.5115     2.4223 C.ar    
  20 C20            0.7688    -2.1515     2.2254 C.ar    
  21 O21           -0.8558     4.1559     0.2087 O.2     
  22 C22            1.0455     5.5411     0.0205 C.3     
  23 C23            0.0125     6.6261    -0.1421 C.ar    
  24 C24            1.8998     5.8373     1.2261 C.ar    
  25 C25            0.0571     7.4640    -1.2407 C.ar    
  26 C26           -0.8905     8.4593    -1.3898 C.ar    
  27 C27           -1.8830     8.6166    -0.4405 C.ar    
  28 C28           -1.9282     7.7781     0.6576 C.ar    
  29 C29           -0.9831     6.7800     0.8045 C.ar    
  30 C30            3.2281     6.1841     1.0637 C.ar    
  31 C31            4.0117     6.4558     2.1696 C.ar    
  32 C32            3.4669     6.3812     3.4378 C.ar    
  33 C33            2.1384     6.0354     3.6002 C.ar    
  34 C34            1.3537     5.7679     2.4941 C.ar    
  35 H35           -3.5245     1.6095    -0.3411 H       
  36 H36           -4.8060     0.8794     0.6555 H       
  37 H37           -3.5353     1.8634     1.4207 H       
  38 H38            4.7611    -0.7140     0.0479 H       
  39 H39            4.7491    -0.4602     1.8097 H       
  40 H40            5.7319    -2.6629     1.2346 H       
  41 H41            4.2189    -2.8582     2.1516 H       
  42 H42            4.2309    -3.1121     0.3899 H       
  43 H43            2.0534     3.1400     0.3725 H       
  44 H44           -0.6771    -2.2034    -0.8324 H       
  45 H45           -0.4146    -4.6245    -0.4763 H       
  46 H46            0.5990    -5.4619     1.6041 H       
  47 H47            1.3519    -3.8819     3.3344 H       
  48 H48            1.0994    -1.4587     2.9852 H       
  49 H49            1.6740     5.5015    -0.8693 H       
  50 H50            0.8325     7.3411    -1.9824 H       
  51 H51           -0.8552     9.1144    -2.2477 H       
  52 H52           -2.6229     9.3947    -0.5566 H       
  53 H53           -2.7034     7.9012     1.3995 H       
  54 H54           -1.0184     6.1250     1.6625 H       
  55 H55            3.6537     6.2423     0.0728 H       
  56 H56            5.0496     6.7260     2.0427 H       
  57 H57            4.0793     6.5928     4.3019 H       
  58 H58            1.7129     5.9768     4.5911 H       
  59 H59            0.3157     5.4977     2.6209 H       
@<TRIPOS>BOND
   1    1    2 2
   2    1    5 1
   3    2    3 1
   4    2    6 1
   5    3    4 1
   6    3   15 1
   7    4    5 2
   8    4    8 1
   9    5   13 1
  10    6    7 1
  11    7   35 1
  12    7   36 1
  13    7   37 1
  14    8    9 2
  15    8   10 1
  16   10   11 1
  17   11   12 1
  18   11   38 1
  19   11   39 1
  20   12   40 1
  21   12   41 1
  22   12   42 1
  23   13   14 am
  24   13   43 1
  25   14   21 2
  26   14   22 1
  27   15   16 ar
  28   15   20 ar
  29   16   17 ar
  30   16   44 1
  31   17   18 ar
  32   17   45 1
  33   18   19 ar
  34   18   46 1
  35   19   20 ar
  36   19   47 1
  37   20   48 1
  38   22   24 1
  39   22   23 1
  40   22   49 1
  41   23   25 ar
  42   23   29 ar
  43   24   30 ar
  44   24   34 ar
  45   25   26 ar
  46   25   50 1
  47   26   27 ar
  48   26   51 1
  49   27   28 ar
  50   27   52 1
  51   28   29 ar
  52   28   53 1
  53   29   54 1
  54   30   31 ar
  55   30   55 1
  56   31   32 ar
  57   31   56 1
  58   32   33 ar
  59   32   57 1
  60   33   34 ar
  61   33   58 1
  62   34   59 1

#	End of record

