#	Name: ASD01880421
#	Creating user name:	WinNT
#	Creation time:	15. 06. 2019 19:40

#	Modifying user name:	WinNT
#	Modification time:	15. 06. 2019 19:40

#	Program:	/corina/corina34_cracker 3.40 0067  02.08.2006

@<TRIPOS>MOLECULE
ASD01880421
  23   23    0    0    0
SMALL
NO_CHARGES


@<TRIPOS>ATOM
   1 O1            -0.0161     1.3381     0.0094 O.3     
   2 C2             0.0021    -0.0041     0.0020 C.2     
   3 O3             1.0565    -0.5939    -0.0112 O.2     
   4 C4            -1.2926    -0.7753     0.0102 C.3     
   5 C5            -2.1305    -0.4547    -1.2524 C.3     
   6 C6            -3.0443    -1.6858    -1.4226 C.3     
   7 C7            -2.3430    -2.8557    -0.7104 C.3     
   8 C8            -1.0274    -2.2946    -0.1322 C.3     
   9 N9            -3.1921    -3.3662     0.3743 N.3     
  10 C10           -2.0458    -3.9565    -1.6958 C.2     
  11 O11           -0.9714    -4.0001    -2.2469 O.2     
  12 O12           -2.9746    -4.8885    -1.9612 O.3     
  13 H13            0.8394     1.7888     0.0037 H       
  14 H14           -1.8614    -0.5627     0.9155 H       
  15 H15           -2.7268     0.4443    -1.0965 H       
  16 H16           -1.4823    -0.3378    -2.1209 H       
  17 H17           -4.0147    -1.4969    -0.9635 H       
  18 H18           -3.1697    -1.9143    -2.4810 H       
  19 H19           -0.2011    -2.4748    -0.8197 H       
  20 H20           -0.8187    -2.7383     0.8413 H       
  21 H21           -4.0670    -3.7167     0.0141 H       
  22 H22           -2.7106    -4.0749     0.9073 H       
  23 H23           -2.7379    -5.5746    -2.6002 H       
@<TRIPOS>BOND
   1    1    2 1
   2    1   13 1
   3    2    3 2
   4    2    4 1
   5    4    5 1
   6    4    8 1
   7    4   14 1
   8    5    6 1
   9    5   15 1
  10    5   16 1
  11    6    7 1
  12    6   17 1
  13    6   18 1
  14    7    8 1
  15    7    9 1
  16    7   10 1
  17    8   19 1
  18    8   20 1
  19    9   21 1
  20    9   22 1
  21   10   11 2
  22   10   12 1
  23   12   23 1

#	End of record

