#	Name: ASD01913171
#	Creating user name:	WinNT
#	Creation time:	15. 06. 2019 20:01

#	Modifying user name:	WinNT
#	Modification time:	15. 06. 2019 20:01

#	Program:	/corina/corina34_cracker 3.40 0067  02.08.2006

@<TRIPOS>MOLECULE
ASD01913171
  48   51    0    0    0
SMALL
NO_CHARGES


@<TRIPOS>ATOM
   1 C1             0.7303     1.1796    -1.0053 C.3     
   2 N2             0.3535    -0.1342    -0.4729 N.am    
   3 C3             1.3091    -0.7960     0.4309 C.3     
   4 C4             2.5768    -1.0983    -0.3666 C.3     
   5 C5             3.0153     0.1081    -1.1544 C.ar    
   6 C6             4.3372     0.1487    -1.5892 C.ar    
   7 C7             4.8023     1.2215    -2.3238 C.ar    
   8 C8             3.9474     2.2661    -2.6318 C.ar    
   9 C9             2.6361     2.2281    -2.1974 C.ar    
  10 C10            2.1694     1.1515    -1.4557 C.ar    
  11 C11           -0.8200    -0.7121    -0.7976 C.2     
  12 C12           -1.8126     0.0318    -1.5982 C.ar    
  13 C13           -2.6083    -0.6422    -2.5237 C.ar    
  14 C14           -3.5435     0.0650    -3.2759 C.ar    
  15 C15           -3.6776     1.4517    -3.0962 C.ar    
  16 C16           -2.8801     2.1120    -2.1726 C.ar    
  17 C17           -1.9589     1.4117    -1.4243 C.ar    
  18 O18           -1.0612    -1.8460    -0.4311 O.2     
  19 C19           -4.3646    -0.6189    -4.2291 C.1     
  20 C20           -5.0378    -1.1796    -5.0105 C.1     
  21 C21           -5.8590    -1.8636    -5.9637 C.ar    
  22 C22           -6.7949    -1.1466    -6.7144 C.ar    
  23 C23           -7.5799    -1.8222    -7.6305 C.ar    
  24 C24           -7.4069    -3.1931    -7.7695 C.ar    
  25 C25           -6.4624    -3.8410    -6.9949 C.ar    
  26 N26           -5.7220    -3.1755    -6.1322 N.ar    
  27 O27           -4.5864     2.1452    -3.8257 O.3     
  28 C28           -4.6690     3.5524    -3.5912 C.3     
  29 F29            4.3932     3.3177    -3.3533 F       
  30 F30            5.1723    -0.8701    -1.2896 F       
  31 H31            0.0898     1.4249    -1.8525 H       
  32 H32            0.6080     1.9344    -0.2285 H       
  33 H33            1.5466    -0.1351     1.2645 H       
  34 H34            0.8793    -1.7246     0.8063 H       
  35 H35            3.3724    -1.3863     0.3205 H       
  36 H36            2.3808    -1.9225    -1.0525 H       
  37 H37            5.8295     1.2459    -2.6565 H       
  38 H38            1.9688     3.0429    -2.4369 H       
  39 H39           -2.4997    -1.7084    -2.6571 H       
  40 H40           -2.9848     3.1782    -2.0365 H       
  41 H41           -1.3447     1.9311    -0.7037 H       
  42 H42           -6.9036    -0.0805    -6.5807 H       
  43 H43           -8.3118    -1.2953    -8.2247 H       
  44 H44           -8.0053    -3.7486    -8.4764 H       
  45 H45           -6.3266    -4.9071    -7.1018 H       
  46 H46           -3.7056     4.0140    -3.8080 H       
  47 H47           -5.4326     3.9844    -4.2380 H       
  48 H48           -4.9316     3.7322    -2.5487 H       
@<TRIPOS>BOND
   1    1    2 1
   2    1   10 1
   3    1   31 1
   4    1   32 1
   5    2    3 1
   6    2   11 am
   7    3    4 1
   8    3   33 1
   9    3   34 1
  10    4    5 1
  11    4   35 1
  12    4   36 1
  13    5    6 ar
  14    5   10 ar
  15    6    7 ar
  16    6   30 1
  17    7    8 ar
  18    7   37 1
  19    8    9 ar
  20    8   29 1
  21    9   10 ar
  22    9   38 1
  23   11   12 1
  24   11   18 2
  25   12   13 ar
  26   12   17 ar
  27   13   14 ar
  28   13   39 1
  29   14   15 ar
  30   14   19 1
  31   15   16 ar
  32   15   27 1
  33   16   17 ar
  34   16   40 1
  35   17   41 1
  36   19   20 3
  37   20   21 1
  38   21   22 ar
  39   21   26 ar
  40   22   23 ar
  41   22   42 1
  42   23   24 ar
  43   23   43 1
  44   24   25 ar
  45   24   44 1
  46   25   26 ar
  47   25   45 1
  48   27   28 1
  49   28   46 1
  50   28   47 1
  51   28   48 1

#	End of record

