#	Name: ASD01908027
#	Creating user name:	WinNT
#	Creation time:	15. 06. 2019 19:54

#	Modifying user name:	WinNT
#	Modification time:	15. 06. 2019 19:54

#	Program:	/corina/corina34_cracker 3.40 0067  02.08.2006

@<TRIPOS>MOLECULE
ASD01908027
  47   50    0    0    0
SMALL
NO_CHARGES


@<TRIPOS>ATOM
   1 C1            -0.0147     1.2096     0.0186 C.2     
   2 O2             0.0014    -0.0034     0.0134 O.2     
   3 N3             3.3400     2.4032     0.0400 N.pl3   
   4 N4             2.4686     1.4632     0.0805 N.2     
   5 C5             1.2460     1.9601     0.0052 C.2     
   6 C6             1.4071     3.4179    -0.0957 C.2     
   7 C7             2.7585     3.6155    -0.0668 C.2     
   8 S8            -0.9414     6.6156    -0.3419 S.3     
   9 C9            -1.7756     5.1256    -0.4121 C.2     
  10 N10           -0.9448     4.1382    -0.3261 N.2     
  11 C11            0.3416     4.4437    -0.2049 C.2     
  12 C12            0.5942     5.7660    -0.1893 C.2     
  13 O13           -3.1188     4.9969    -0.5399 O.3     
  14 C14           -3.8625     6.1289    -0.6190 C.ar    
  15 C15           -5.2425     6.0377    -0.7505 C.ar    
  16 C16           -5.9895     7.1999    -0.8302 C.ar    
  17 C17           -5.3263     8.4183    -0.7751 C.ar    
  18 C18           -3.9521     8.4340    -0.6436 C.ar    
  19 N19           -3.2673     7.3089    -0.5647 N.ar    
  20 C20           -3.2255     9.7529    -0.5831 C.3     
  21 C21            4.7875     2.1875     0.1077 C.3     
  22 C22            5.1202     1.3973     1.3471 C.ar    
  23 C23            5.1494     0.0158     1.2976 C.ar    
  24 C24            5.4541    -0.7108     2.4323 C.ar    
  25 C25            5.7309    -0.0533     3.6221 C.ar    
  26 C26            5.7009     1.3329     3.6691 C.ar    
  27 C27            5.4012     2.0551     2.5303 C.ar    
  28 O28            6.0305    -0.7659     4.7399 O.3     
  29 C29            6.3046    -0.0225     5.9291 C.3     
  30 H30           -0.9571     1.7371     0.0287 H       
  31 H31            3.2672     4.5667    -0.1193 H       
  32 H32            1.5675     6.2253    -0.0994 H       
  33 H33           -5.7258     5.0728    -0.7905 H       
  34 H34           -7.0638     7.1600    -0.9332 H       
  35 H35           -5.8795     9.3440    -0.8349 H       
  36 H36           -3.1483    10.0780     0.4544 H       
  37 H37           -2.2263     9.6368    -1.0028 H       
  38 H38           -3.7764    10.4979    -1.1573 H       
  39 H39            5.1141     1.6356    -0.7737 H       
  40 H40            5.2971     3.1503     0.1430 H       
  41 H41            4.9335    -0.4956     0.3712 H       
  42 H42            5.4765    -1.7899     2.3933 H       
  43 H43            5.9160     1.8471     4.5942 H       
  44 H44            5.3824     3.1344     2.5652 H       
  45 H45            7.1606     0.6307     5.7601 H       
  46 H46            5.4341     0.5794     6.1901 H       
  47 H47            6.5281    -0.7107     6.7443 H       
@<TRIPOS>BOND
   1    1    2 2
   2    1    5 1
   3    1   30 1
   4    3    4 1
   5    3    7 1
   6    3   21 1
   7    4    5 2
   8    5    6 1
   9    6    7 2
  10    6   11 1
  11    7   31 1
  12    8    9 1
  13    8   12 1
  14    9   10 2
  15    9   13 1
  16   10   11 1
  17   11   12 2
  18   12   32 1
  19   13   14 1
  20   14   15 ar
  21   14   19 ar
  22   15   16 ar
  23   15   33 1
  24   16   17 ar
  25   16   34 1
  26   17   18 ar
  27   17   35 1
  28   18   19 ar
  29   18   20 1
  30   20   36 1
  31   20   37 1
  32   20   38 1
  33   21   22 1
  34   21   39 1
  35   21   40 1
  36   22   23 ar
  37   22   27 ar
  38   23   24 ar
  39   23   41 1
  40   24   25 ar
  41   24   42 1
  42   25   26 ar
  43   25   28 1
  44   26   27 ar
  45   26   43 1
  46   27   44 1
  47   28   29 1
  48   29   45 1
  49   29   46 1
  50   29   47 1

#	End of record

