#	Name: ASD02039155
#	Creating user name:	WinNT
#	Creation time:	15. 06. 2019 20:17

#	Modifying user name:	WinNT
#	Modification time:	15. 06. 2019 20:17

#	Program:	/corina/corina34_cracker 3.40 0067  02.08.2006

@<TRIPOS>MOLECULE
ASD02039155
  42   45    0    0    0
SMALL
NO_CHARGES


@<TRIPOS>ATOM
   1 N1             0.0190     1.3143    -0.0643 N.2     
   2 C2             0.1307     0.0135    -0.1116 C.2     
   3 N3             1.4498    -0.2749    -0.1080 N.2     
   4 C4             2.0631     0.8820    -0.0582 C.2     
   5 O5             1.1179     1.8267    -0.0332 O.3     
   6 C6             3.5533     1.1053    -0.0336 C.3     
   7 O7             3.8930     2.1528    -0.9442 O.3     
   8 C8             5.1570     2.1494    -1.4452 C.ar    
   9 N9            -0.9131    -0.9024    -0.1565 N.pl3   
  10 C10           -2.2351    -0.4624    -0.0357 C.ar    
  11 C11           -3.2702    -1.2114    -0.5805 C.ar    
  12 C12           -4.5748    -0.7748    -0.4593 C.ar    
  13 C13           -4.8512     0.4079     0.2040 C.ar    
  14 C14           -3.8218     1.1564     0.7473 C.ar    
  15 C15           -2.5159     0.7215     0.6341 C.ar    
  16 C16            5.5181     3.0753    -2.4207 C.ar    
  17 C17            6.7943     3.0869    -2.9395 C.ar    
  18 C18            7.7357     2.1678    -2.4890 C.ar    
  19 C19            7.3749     1.2301    -1.5030 C.ar    
  20 C20            6.0777     1.2317    -0.9802 C.ar    
  21 N21            9.0190     2.1625    -2.9969 N.am    
  22 C22            9.9306     1.2744    -2.5637 C.2     
  23 C23            9.6189     0.3141    -1.5776 C.2     
  24 C24            8.3757     0.2676    -1.0385 C.2     
  25 O25           11.0546     1.2990    -3.0347 O.2     
  26 Cl26          -6.4922     0.9537     0.3545 Cl      
  27 C27            3.9869     1.4978     1.3802 C.3     
  28 H28            4.0630     0.1880    -0.3285 H       
  29 H29           -0.7250    -1.8469    -0.2716 H       
  30 H30           -3.0550    -2.1342    -1.0986 H       
  31 H31           -5.3800    -1.3566    -0.8830 H       
  32 H32           -4.0403     2.0793     1.2639 H       
  33 H33           -1.7129     1.3059     1.0586 H       
  34 H34            4.7906     3.7910    -2.7743 H       
  35 H35            7.0634     3.8092    -3.6960 H       
  36 H36            5.7958     0.5147    -0.2234 H       
  37 H37            9.2667     2.8088    -3.6765 H       
  38 H38           10.3736    -0.3860    -1.2509 H       
  39 H39            8.1290    -0.4636    -0.2829 H       
  40 H40            5.0647     1.6593     1.3979 H       
  41 H41            3.4772     2.4151     1.6750 H       
  42 H42            3.7277     0.6988     2.0747 H       
@<TRIPOS>BOND
   1    1    2 2
   2    1    5 1
   3    2    3 1
   4    2    9 1
   5    3    4 2
   6    4    5 1
   7    4    6 1
   8    6    7 1
   9    6   27 1
  10    6   28 1
  11    7    8 1
  12    8   16 ar
  13    8   20 ar
  14    9   10 1
  15    9   29 1
  16   10   11 ar
  17   10   15 ar
  18   11   12 ar
  19   11   30 1
  20   12   13 ar
  21   12   31 1
  22   13   14 ar
  23   13   26 1
  24   14   15 ar
  25   14   32 1
  26   15   33 1
  27   16   17 ar
  28   16   34 1
  29   17   18 ar
  30   17   35 1
  31   18   19 ar
  32   18   21 1
  33   19   20 ar
  34   19   24 1
  35   20   36 1
  36   21   22 am
  37   21   37 1
  38   22   23 1
  39   22   25 2
  40   23   24 2
  41   23   38 1
  42   24   39 1
  43   27   40 1
  44   27   41 1
  45   27   42 1

#	End of record

