#	Name: ASD08150016
#	Creating user name:	WinNT
#	Creation time:	15. 06. 2019 21:15

#	Modifying user name:	WinNT
#	Modification time:	15. 06. 2019 21:15

#	Program:	/corina/corina34_cracker 3.40 0067  02.08.2006

@<TRIPOS>MOLECULE
ASD08150016
  44   47    0    0    0
SMALL
NO_CHARGES


@<TRIPOS>ATOM
   1 N1            -0.0155     1.2942     0.0092 N.2     
   2 C2             0.0021    -0.0041     0.0020 C.2     
   3 N3             1.1467    -0.7358    -0.0128 N.am    
   4 C4             2.3546    -0.1253    -0.0211 C.2     
   5 C5             2.3699     1.3451    -0.0133 C.ar    
   6 C6             3.5600     2.0697    -0.0212 C.ar    
   7 C7             3.5163     3.4466    -0.0139 C.ar    
   8 C8             2.2987     4.1146     0.0017 C.ar    
   9 C9             1.1117     3.4173     0.0102 C.ar    
  10 C10            1.1299     2.0210     0.0021 C.ar    
  11 O11            3.3880    -0.7684    -0.0340 O.2     
  12 C12           -1.3147    -0.7369     0.0112 C.3     
  13 S13           -2.6716     0.4608     0.0311 S.3     
  14 N14           -5.9161     1.0952     0.0666 N.2     
  15 C15           -7.2134     0.9911     0.0790 C.2     
  16 N16           -7.5750    -0.3233     0.0761 N.pl3   
  17 C17           -6.4221    -1.0669     0.0611 C.ar    
  18 N18           -6.1436    -2.3665     0.0516 N.ar    
  19 C19           -4.8955    -2.7855     0.0367 C.ar    
  20 N20           -3.8691    -1.9553     0.0300 N.ar    
  21 C21           -4.0493    -0.6376     0.0389 C.ar    
  22 C22           -5.3646    -0.1418     0.0551 C.ar    
  23 C23            1.0728    -2.1989    -0.0195 C.3     
  24 C24            1.0330    -2.7009    -1.4643 C.3     
  25 C25            0.9558    -4.2290    -1.4712 C.3     
  26 C26            0.9161    -4.7310    -2.9160 C.3     
  27 H27            4.5098     1.5557    -0.0326 H       
  28 H28            4.4367     4.0115    -0.0200 H       
  29 H29            2.2828     5.1944     0.0077 H       
  30 H30            0.1710     3.9476     0.0224 H       
  31 H31           -1.3912    -1.3578    -0.8814 H       
  32 H32           -1.3735    -1.3673     0.8984 H       
  33 H33           -7.9018     1.8232     0.0899 H       
  34 H34           -8.4811    -0.6694     0.0835 H       
  35 H35           -4.7042    -3.8484     0.0297 H       
  36 H36            1.9483    -2.6092     0.4837 H       
  37 H37            0.1707    -2.5195     0.5015 H       
  38 H38            0.1575    -2.2906    -1.9675 H       
  39 H39            1.9351    -2.3803    -1.9853 H       
  40 H40            1.8313    -4.6393    -0.9680 H       
  41 H41            0.0537    -4.5496    -0.9502 H       
  42 H42            0.0406    -4.3207    -3.4192 H       
  43 H43            1.8182    -4.4104    -3.4370 H       
  44 H44            0.8611    -5.8196    -2.9210 H       
@<TRIPOS>BOND
   1    1    2 2
   2    1   10 1
   3    2    3 1
   4    2   12 1
   5    3    4 am
   6    3   23 1
   7    4    5 1
   8    4   11 2
   9    5    6 ar
  10    5   10 ar
  11    6    7 ar
  12    6   27 1
  13    7    8 ar
  14    7   28 1
  15    8    9 ar
  16    8   29 1
  17    9   10 ar
  18    9   30 1
  19   12   13 1
  20   12   31 1
  21   12   32 1
  22   13   21 1
  23   14   15 2
  24   14   22 1
  25   15   16 1
  26   15   33 1
  27   16   17 1
  28   16   34 1
  29   17   18 ar
  30   17   22 ar
  31   18   19 ar
  32   19   20 ar
  33   19   35 1
  34   20   21 ar
  35   21   22 ar
  36   23   24 1
  37   23   36 1
  38   23   37 1
  39   24   25 1
  40   24   38 1
  41   24   39 1
  42   25   26 1
  43   25   40 1
  44   25   41 1
  45   26   42 1
  46   26   43 1
  47   26   44 1

#	End of record

