#	Name: ASD01911246
#	Creating user name:	WinNT
#	Creation time:	15. 06. 2019 19:57

#	Modifying user name:	WinNT
#	Modification time:	15. 06. 2019 19:57

#	Program:	/corina/corina34_cracker 3.40 0067  02.08.2006

@<TRIPOS>MOLECULE
ASD01911246
  48   51    0    0    0
SMALL
NO_CHARGES


@<TRIPOS>ATOM
   1 C1            -0.2884     0.6881     0.1937 C.3     
   2 C2             0.4489    -0.6347     0.4244 C.3     
   3 N3             1.2302    -0.9565    -0.7775 N.am    
   4 C4             2.1653     0.0479    -1.3022 C.3     
   5 C5             1.4088     1.3631    -1.5136 C.3     
   6 C6             0.7205     1.7666    -0.2076 C.3     
   7 C7             1.0919    -2.1507    -1.3870 C.2     
   8 O8             1.6777    -2.3729    -2.4255 O.2     
   9 C9             0.2095    -3.2097    -0.7781 C.3     
  10 C10            0.1583    -4.5125    -1.5937 C.3     
  11 C11            0.1970    -5.2619    -0.2514 C.3     
  12 C12            0.8985    -4.0231     0.3302 C.3     
  13 C13            2.7312    -0.4262    -2.6159 C.2     
  14 N14            3.9541    -0.8430    -2.8311 N.2     
  15 C15            4.0033    -1.1619    -4.1442 C.2     
  16 N16            2.8191    -0.9224    -4.6443 N.2     
  17 O17            2.0779    -0.5059    -3.7793 O.3     
  18 C18            5.1812    -1.6853    -4.8803 C.ar    
  19 C19            6.3867    -1.8919    -4.2130 C.ar    
  20 C20            7.4810    -2.3789    -4.8998 C.ar    
  21 C21            7.3848    -2.6620    -6.2491 C.ar    
  22 C22            6.1873    -2.4589    -6.9213 C.ar    
  23 C23            5.0829    -1.9766    -6.2386 C.ar    
  24 O24            6.0971    -2.7383    -8.2483 O.3     
  25 C25            7.2735    -3.2378    -8.8875 C.3     
  26 H26           -1.0219     0.5617    -0.6027 H       
  27 H27           -0.7950     0.9872     1.1113 H       
  28 H28            1.1177    -0.5359     1.2794 H       
  29 H29           -0.2744    -1.4280     0.6134 H       
  30 H30            2.9742     0.2024    -0.5880 H       
  31 H31            2.1103     2.1425    -1.8111 H       
  32 H32            0.6594     1.2303    -2.2938 H       
  33 H33            0.2017     2.7148    -0.3485 H       
  34 H34            1.4679     1.8751     0.5783 H       
  35 H35           -0.7734    -2.8315    -0.4972 H       
  36 H36           -0.7737    -4.6477    -2.1425 H       
  37 H37            1.0417    -4.6763    -2.2108 H       
  38 H38           -0.7893    -5.4455     0.1748 H       
  39 H39            0.8252    -6.1525    -0.2665 H       
  40 H40            1.9843    -4.0532     0.2391 H       
  41 H41            0.5641    -3.7633     1.3346 H       
  42 H42            6.4652    -1.6709    -3.1588 H       
  43 H43            8.4148    -2.5386    -4.3812 H       
  44 H44            8.2438    -3.0421    -6.7821 H       
  45 H45            4.1506    -1.8181    -6.7602 H       
  46 H46            8.0755    -2.5053    -8.7963 H       
  47 H47            7.5773    -4.1703    -8.4119 H       
  48 H48            7.0650    -3.4188    -9.9420 H       
@<TRIPOS>BOND
   1    1    2 1
   2    1    6 1
   3    1   26 1
   4    1   27 1
   5    2    3 1
   6    2   28 1
   7    2   29 1
   8    3    4 1
   9    3    7 am
  10    4    5 1
  11    4   13 1
  12    4   30 1
  13    5    6 1
  14    5   31 1
  15    5   32 1
  16    6   33 1
  17    6   34 1
  18    7    8 2
  19    7    9 1
  20    9   10 1
  21    9   12 1
  22    9   35 1
  23   10   11 1
  24   10   36 1
  25   10   37 1
  26   11   12 1
  27   11   38 1
  28   11   39 1
  29   12   40 1
  30   12   41 1
  31   13   14 2
  32   13   17 1
  33   14   15 1
  34   15   16 2
  35   15   18 1
  36   16   17 1
  37   18   19 ar
  38   18   23 ar
  39   19   20 ar
  40   19   42 1
  41   20   21 ar
  42   20   43 1
  43   21   22 ar
  44   21   44 1
  45   22   23 ar
  46   22   24 1
  47   23   45 1
  48   24   25 1
  49   25   46 1
  50   25   47 1
  51   25   48 1

#	End of record

