#	Name: ASD03092166
#	Creating user name:	WinNT
#	Creation time:	15. 06. 2019 20:32

#	Modifying user name:	WinNT
#	Modification time:	15. 06. 2019 20:32

#	Program:	/corina/corina34_cracker 3.40 0067  02.08.2006

@<TRIPOS>MOLECULE
ASD03092166
  50   53    0    0    0
SMALL
NO_CHARGES


@<TRIPOS>ATOM
   1 N1             0.0490     1.1155    -0.2571 N.pl3   
   2 C2            -0.1084    -0.1659     0.1800 C.2     
   3 C3            -1.4471    -0.3808     0.3442 C.2     
   4 C4            -2.1159     0.8004    -0.0022 C.2     
   5 N5            -1.2222     1.6951    -0.3553 N.2     
   6 N6            -3.5020     0.9957     0.0289 N.pl3   
   7 C7            -4.0350     2.2613    -0.2273 C.ar    
   8 C8            -5.3241     2.3852    -0.7298 C.ar    
   9 C9            -5.8479     3.6380    -0.9819 C.ar    
  10 C10           -5.0905     4.7682    -0.7352 C.ar    
  11 C11           -3.2789     3.3995     0.0253 C.ar    
  12 C12            0.9725    -1.1448     0.4298 C.ar    
  13 C13            1.3223     1.7720    -0.5637 C.3     
  14 C14            0.7539    -2.2251     1.2846 C.ar    
  15 C15            1.7637    -3.1357     1.5166 C.ar    
  16 C16            2.9992    -2.9815     0.9027 C.ar    
  17 C17            3.2225    -1.9072     0.0466 C.ar    
  18 C18            2.2114    -0.9930    -0.1934 C.ar    
  19 C19           -3.8064     4.6486    -0.2353 C.ar    
  20 C20            1.6221     1.6254    -2.0332 C.2     
  21 N21            2.7500     2.1548    -2.5470 N.am    
  22 O22            0.8483     1.0310    -2.7536 O.2     
  23 O23            3.9838    -3.8877     1.1524 O.3     
  24 C24            5.0820    -3.9148     0.2343 C.3     
  25 C25            5.5320    -2.4698    -0.0200 C.3     
  26 O26            4.4257    -1.7461    -0.5695 O.3     
  27 C27            3.0414     2.0122    -3.9757 C.3     
  28 C28           -7.2463     3.7734    -1.5270 C.3     
  29 F29           -8.1536     3.8644    -0.4661 F       
  30 F30           -7.3307     4.9276    -2.3131 F       
  31 F31           -7.5528     2.6539    -2.3080 F       
  32 H32           -1.9079    -1.2978     0.6807 H       
  33 H33           -4.0922     0.2522     0.2283 H       
  34 H34           -5.9160     1.5028    -0.9234 H       
  35 H35           -5.5024     5.7467    -0.9336 H       
  36 H36           -2.2779     3.3069     0.4201 H       
  37 H37            1.2559     2.8301    -0.3102 H       
  38 H38            2.1193     1.3085     0.0177 H       
  39 H39           -0.2055    -2.3484     1.7650 H       
  40 H40            1.5926    -3.9716     2.1786 H       
  41 H41            2.3841    -0.1578    -0.8560 H       
  42 H42           -3.2173     5.5334    -0.0445 H       
  43 H43            3.3689     2.6301    -1.9709 H       
  44 H44            5.9054    -4.4861     0.6630 H       
  45 H45            4.7659    -4.3717    -0.7034 H       
  46 H46            5.8417    -2.0106     0.9188 H       
  47 H47            6.3630    -2.4623    -0.7253 H       
  48 H48            3.9887     2.5007    -4.2038 H       
  49 H49            3.1078     0.9542    -4.2291 H       
  50 H50            2.2444     2.4757    -4.5571 H       
@<TRIPOS>BOND
   1    1    2 1
   2    1   13 1
   3    1    5 1
   4    2    3 2
   5    2   12 1
   6    3    4 1
   7    3   32 1
   8    4    5 2
   9    4    6 1
  10    6    7 1
  11    6   33 1
  12    7    8 ar
  13    7   11 ar
  14    8    9 ar
  15    8   34 1
  16    9   10 ar
  17    9   28 1
  18   10   19 ar
  19   10   35 1
  20   11   19 ar
  21   11   36 1
  22   12   14 ar
  23   12   18 ar
  24   13   20 1
  25   13   37 1
  26   13   38 1
  27   14   15 ar
  28   14   39 1
  29   15   16 ar
  30   15   40 1
  31   16   17 ar
  32   16   23 1
  33   17   18 ar
  34   17   26 1
  35   18   41 1
  36   19   42 1
  37   20   21 am
  38   20   22 2
  39   21   27 1
  40   21   43 1
  41   23   24 1
  42   24   25 1
  43   24   44 1
  44   24   45 1
  45   25   26 1
  46   25   46 1
  47   25   47 1
  48   27   48 1
  49   27   49 1
  50   27   50 1
  51   28   29 1
  52   28   30 1
  53   28   31 1

#	End of record

