#	Name: ASD01810407
#	Creating user name:	WinNT
#	Creation time:	15. 06. 2019 19:24

#	Modifying user name:	WinNT
#	Modification time:	15. 06. 2019 19:24

#	Program:	/corina/corina34_cracker 3.40 0067  02.08.2006

@<TRIPOS>MOLECULE
ASD01810407
  31   32    0    0    0
SMALL
NO_CHARGES


@<TRIPOS>ATOM
   1 C1            -0.0167     1.3786     0.0096 C.ar    
   2 C2             0.0021    -0.0041     0.0020 C.ar    
   3 C3            -1.1837    -0.7123     0.0095 C.ar    
   4 C4            -2.3954    -0.0344     0.0247 C.ar    
   5 C5            -2.4109     1.3539     0.0323 C.ar    
   6 C6            -1.2218     2.0565     0.0305 C.ar    
   7 C7             1.2789     2.1482     0.0014 C.3     
   8 N8             1.6867     2.4058    -1.3862 N.3     
   9 N9            -3.6003    -0.7502     0.0319 N.pl3   
  10 C10           -4.8398    -0.2137     0.0466 C.2     
  11 C11           -5.7355    -1.2458     0.0491 C.2     
  12 C12           -4.9974    -2.4479     0.0354 C.2     
  13 N13           -3.7266    -2.1444     0.0191 N.2     
  14 C14           -7.2094    -1.1245     0.0636 C.2     
  15 C15           -7.8397    -0.5809    -0.9676 C.2     
  16 C16           -7.9945    -1.6192     1.2510 C.3     
  17 H17            0.9449    -0.5307    -0.0102 H       
  18 H18           -1.1684    -1.7921     0.0032 H       
  19 H19           -3.3519     1.8839     0.0442 H       
  20 H20           -1.2332     3.1364     0.0364 H       
  21 H21            1.1417     3.0962     0.5216 H       
  22 H22            2.0507     1.5659     0.5047 H       
  23 H23            0.9599     2.8885    -1.8930 H       
  24 H24            2.5536     2.9210    -1.4186 H       
  25 H25           -5.0794     0.8394     0.0552 H       
  26 H26           -5.4109    -3.4456     0.0335 H       
  27 H27           -8.9160    -0.4924    -0.9570 H       
  28 H28           -7.2771    -0.2264    -1.8186 H       
  29 H29           -7.3102    -2.0305     1.9932 H       
  30 H30           -8.5508    -0.7907     1.6894 H       
  31 H31           -8.6902    -2.3942     0.9293 H       
@<TRIPOS>BOND
   1    1    2 ar
   2    1    7 1
   3    1    6 ar
   4    2    3 ar
   5    2   17 1
   6    3    4 ar
   7    3   18 1
   8    4    5 ar
   9    4    9 1
  10    5    6 ar
  11    5   19 1
  12    6   20 1
  13    7    8 1
  14    7   21 1
  15    7   22 1
  16    8   23 1
  17    8   24 1
  18    9   10 1
  19    9   13 1
  20   10   11 2
  21   10   25 1
  22   11   12 1
  23   11   14 1
  24   12   13 2
  25   12   26 1
  26   14   15 2
  27   14   16 1
  28   15   27 1
  29   15   28 1
  30   16   29 1
  31   16   30 1
  32   16   31 1

#	End of record

