#	Name: ASD06600013
#	Creating user name:	WinNT
#	Creation time:	15. 06. 2019 21:06

#	Modifying user name:	WinNT
#	Modification time:	15. 06. 2019 21:06

#	Program:	/corina/corina34_cracker 3.40 0067  02.08.2006

@<TRIPOS>MOLECULE
ASD06600013
 227  230    0    0    0
SMALL
NO_CHARGES


@<TRIPOS>ATOM
   1 C1            -0.2055     0.8722     0.7089 C.2     
   2 O2            -0.2740    -0.3359     0.7907 O.2     
   3 N3             2.1924     0.5497     0.8964 N.am    
   4 C4             1.1371     1.5554     0.7521 C.3     
   5 C5             1.3527     2.3385    -0.5446 C.3     
   6 C6             2.6380     3.1198    -0.4517 C.2     
   7 C7             3.6637     3.0623    -1.3225 C.2     
   8 N8             4.6213     3.9262    -0.8640 N.pl3   
   9 C9             4.1472     4.4819     0.2718 C.2     
  10 N10            2.9584     3.9987     0.5095 N.2     
  11 C11           -3.6160     1.8117    -0.2124 C.2     
  12 O12           -3.2608     2.8836    -0.6550 O.2     
  13 N13           -1.3296     1.6033     0.5739 N.am    
  14 C14           -2.6343     0.9387     0.5260 C.3     
  15 C15           -3.1369     0.6983     1.9509 C.3     
  16 C16           -7.2436     1.9221    -0.6497 C.2     
  17 O17           -7.4856     0.8390    -0.1605 O.2     
  18 N18           -4.8886     1.4014    -0.3809 N.am    
  19 C19           -5.8429     2.2502    -1.0987 C.3     
  20 C20           -5.7177     1.9993    -2.6028 C.3     
  21 C21           -4.3422     2.4651    -3.0847 C.3     
  22 C22           -5.8778     0.5042    -2.8856 C.3     
  23 C23          -10.5587     3.3538    -1.2185 C.2     
  24 O24          -10.1282     4.1869    -1.9877 O.2     
  25 N25           -8.2274     2.8323    -0.7917 N.am    
  26 C26           -9.6061     2.4813    -0.4423 C.3     
  27 C27           -9.8231     2.6970     1.0567 C.3     
  28 C28           -8.9585     1.7371     1.8327 C.2     
  29 C29           -8.0657     2.0686     2.7849 C.2     
  30 N30           -7.5055     0.9003     3.2265 N.pl3   
  31 C31           -8.0759    -0.1051     2.5283 C.2     
  32 N32           -8.9475     0.4025     1.7002 N.2     
  33 C33          -14.1207     4.1613    -1.0674 C.2     
  34 O34          -14.2638     3.5842    -0.0103 O.2     
  35 N35          -11.8889     3.2084    -1.0578 N.am    
  36 C36          -12.8149     4.0566    -1.8123 C.3     
  37 C37          -13.0622     3.4411    -3.1910 C.3     
  38 C38          -17.5082     5.3088    -1.8233 C.2     
  39 O39          -17.2625     5.4331    -3.0045 O.2     
  40 N40          -15.1296     4.8962    -1.5758 N.am    
  41 C41          -16.3990     4.9980    -0.8516 C.3     
  42 C42          -16.3044     6.1157     0.1889 C.3     
  43 C43          -15.2796     5.7470     1.2305 C.ar    
  44 C44          -13.9572     6.1114     1.0570 C.ar    
  45 C45          -13.0158     5.7742     2.0101 C.ar    
  46 C46          -13.3984     5.0696     3.1423 C.ar    
  47 O47          -12.4743     4.7371     4.0816 O.3     
  48 C48          -14.7260     4.7055     3.3143 C.ar    
  49 C49          -15.6644     5.0497     2.3607 C.ar    
  50 C50          -20.9760     6.4430    -1.5983 C.2     
  51 O51          -20.8858     6.6623    -0.4089 O.2     
  52 N52          -18.7731     5.4487    -1.3798 N.am    
  53 C53          -19.8514     5.7509    -2.3244 C.3     
  54 C54          -20.3676     4.4499    -2.9423 C.3     
  55 C55          -19.2607     3.8101    -3.7827 C.3     
  56 C56          -19.7769     2.5091    -4.4007 C.3     
  57 N57          -18.7170     1.8964    -5.2054 N.pl3   
  58 C58          -18.9503     0.7112    -5.8618 C.2     
  59 N59          -18.0073     0.1661    -6.5777 N.2     
  60 N60          -20.1782     0.1008    -5.7630 N.pl3   
  61 C61          -24.4677     7.2622    -2.3057 C.2     
  62 O62          -24.4747     6.6020    -3.3230 O.2     
  63 N63          -22.0821     6.8183    -2.2708 N.am    
  64 C64          -23.1754     7.4912    -1.5649 C.3     
  65 C65          -22.8882     8.9922    -1.4924 C.3     
  66 C66          -21.6629     9.2290    -0.6476 C.2     
  67 C67          -20.5611     9.9058    -1.0237 C.2     
  68 N68          -19.6993     9.8817     0.0395 N.pl3   
  69 C69          -20.3050     9.1905     1.0290 C.2     
  70 N70          -21.4810     8.8075     0.6126 N.2     
  71 C71          -27.8343     8.6853    -2.2458 C.2     
  72 O72          -27.5035     9.5792    -1.4959 O.2     
  73 N73          -25.6156     7.7911    -1.8376 N.am    
  74 C74          -26.8718     7.5685    -2.5577 C.3     
  75 C75          -27.4802     6.2342    -2.1214 C.3     
  76 C76          -26.5598     5.0896    -2.5498 C.3     
  77 C77          -27.1682     3.7553    -2.1135 C.3     
  78 N78          -26.2869     2.6593    -2.5237 N.pl3   
  79 C79          -26.6288     1.3586    -2.2382 C.2     
  80 N80          -27.7371     1.1006    -1.6025 N.2     
  81 N81          -25.8017     0.3301    -2.6232 N.pl3   
  82 C82          -30.7342     9.4636    -1.2198 C.2     
  83 O83          -30.5010     8.4387    -0.6238 O.2     
  84 N84          -29.0627     8.6908    -2.8003 N.am    
  85 C85          -29.9984     9.7766    -2.4971 C.3     
  86 C86          -31.0027     9.9190    -3.6425 C.3     
  87 C87          -30.2700    10.3587    -4.9116 C.3     
  88 C88          -31.2743    10.5012    -6.0570 C.3     
  89 N89          -30.5727    10.9222    -7.2722 N.pl3   
  90 C90          -31.2741    11.1163    -8.4386 C.2     
  91 N91          -30.6499    11.4909    -9.5197 N.2     
  92 N92          -32.6339    10.9154    -8.4646 N.pl3   
  93 O93          -31.6487    10.3233    -0.7441 O.3     
  94 C94            3.3744     0.8876     1.4489 C.2     
  95 O95            3.5643     2.0243     1.8266 O.2     
  96 C96           20.7725    -3.0250     7.2094 C.3     
  97 C97           19.6703    -1.9745     7.0587 C.3     
  98 C98           18.4422    -2.6138     6.4077 C.3     
  99 C99           17.3400    -1.5634     6.2570 C.3     
 100 C100          16.1118    -2.2027     5.6060 C.3     
 101 C101          15.0096    -1.1523     5.4553 C.3     
 102 C102          13.7815    -1.7916     4.8042 C.3     
 103 C103          12.6793    -0.7412     4.6535 C.3     
 104 C104          11.4511    -1.3804     4.0025 C.3     
 105 C105          10.3489    -0.3300     3.8518 C.3     
 106 C106           9.1207    -0.9693     3.2008 C.3     
 107 C107           8.0185     0.0811     3.0501 C.3     
 108 C108           6.7904    -0.5582     2.3990 C.3     
 109 C109           5.6882     0.4922     2.2483 C.3     
 110 C110           4.4600    -0.1470     1.5973 C.3     
 111 H111           2.0406    -0.3595     0.5942 H       
 112 H112           1.1693     2.2401     1.5996 H       
 113 H113           1.4091     1.6444    -1.3831 H       
 114 H114           0.5201     3.0254    -0.6969 H       
 115 H115           3.7200     2.4517    -2.2115 H       
 116 H116           5.4802     4.1057    -1.2776 H       
 117 H117           4.6643     5.2089     0.8804 H       
 118 H118          -1.2749     2.5696     0.5086 H       
 119 H119          -2.5369    -0.0161     0.0092 H       
 120 H120          -4.1077     0.2038     1.9152 H       
 121 H121          -2.4269     0.0668     2.4850 H       
 122 H122          -3.2343     1.6531     2.4677 H       
 123 H123          -5.1728     0.5442    -0.0270 H       
 124 H124          -5.6292     3.2976    -0.8860 H       
 125 H125          -6.4942     2.5539    -3.1295 H       
 126 H126          -3.5705     1.8306    -2.6489 H       
 127 H127          -4.2964     2.3985    -4.1717 H       
 128 H128          -4.1800     3.4981    -2.7768 H       
 129 H129          -6.8576     0.1724    -2.5423 H       
 130 H130          -5.7885     0.3255    -3.9571 H       
 131 H131          -5.1012    -0.0504    -2.3588 H       
 132 H132          -8.0225     3.7199    -1.1252 H       
 133 H133          -9.7884     1.4353    -0.6890 H       
 134 H134          -9.5554     3.7206     1.3190 H       
 135 H135         -10.8707     2.5214     1.3012 H       
 136 H136          -7.8356     3.0648     3.1329 H       
 137 H137          -6.8258     0.8113     3.9127 H       
 138 H138          -7.8511    -1.1555     2.6398 H       
 139 H139         -12.2332     2.5422    -0.4426 H       
 140 H140         -12.3832     5.0505    -1.9303 H       
 141 H141         -13.4939     2.4472    -3.0731 H       
 142 H142         -13.7512     4.0722    -3.7524 H       
 143 H143         -12.1177     3.3654    -3.7298 H       
 144 H144         -15.0152     5.3578    -2.4213 H       
 145 H145         -16.6086     4.0526    -0.3513 H       
 146 H146         -16.0076     7.0434    -0.3004 H       
 147 H147         -17.2750     6.2510     0.6660 H       
 148 H148         -13.6599     6.6599     0.1754 H       
 149 H149         -11.9829     6.0585     1.8738 H       
 150 H150         -12.3613     5.4018     4.7748 H       
 151 H151         -15.0262     4.1567     4.1946 H       
 152 H152         -16.6988     4.7703     2.4962 H       
 153 H153         -18.9696     5.3493    -0.4351 H       
 154 H154         -19.4724     6.4020    -3.1122 H       
 155 H155         -20.6643     3.7636    -2.1492 H       
 156 H156         -21.2272     4.6651    -3.5770 H       
 157 H157         -18.9640     4.4963    -4.5759 H       
 158 H158         -18.4010     3.5948    -3.1481 H       
 159 H159         -20.0735     1.8228    -3.6075 H       
 160 H160         -20.6365     2.7243    -5.0353 H       
 161 H161         -17.8506     2.3271    -5.2751 H       
 162 H162         -18.1719    -0.6702    -7.0408 H       
 163 H163         -20.8800     0.5064    -5.2301 H       
 164 H164         -20.3428    -0.7355    -6.2261 H       
 165 H165         -22.1543     6.6429    -3.2220 H       
 166 H166         -23.2588     7.0880    -0.5556 H       
 167 H167         -22.7169     9.3783    -2.4972 H       
 168 H168         -23.7412     9.5042    -1.0469 H       
 169 H169         -20.3902    10.3768    -1.9805 H       
 170 H170         -18.8182    10.2857     0.0754 H       
 171 H171         -19.8870     8.9912     2.0047 H       
 172 H172         -25.6100     8.3191    -1.0239 H       
 173 H173         -26.6769     7.5456    -3.6299 H       
 174 H174         -27.5929     6.2234    -1.0372 H       
 175 H175         -28.4568     6.1098    -2.5894 H       
 176 H176         -26.4471     5.1003    -3.6339 H       
 177 H177         -25.5833     5.2139    -2.0818 H       
 178 H178         -27.2809     3.7445    -1.0294 H       
 179 H179         -28.1447     3.6309    -2.5815 H       
 180 H180         -25.4621     2.8513    -2.9968 H       
 181 H181         -27.9783     0.1829    -1.4010 H       
 182 H182         -24.9770     0.5221    -3.0962 H       
 183 H183         -26.0429    -0.5876    -2.4217 H       
 184 H184         -29.3273     7.9759    -3.4001 H       
 185 H185         -29.4468    10.7093    -2.3794 H       
 186 H186         -31.4913     8.9607    -3.8186 H       
 187 H187         -31.7517    10.6656    -3.3782 H       
 188 H188         -29.7814    11.3170    -4.7355 H       
 189 H189         -29.5210     9.6122    -5.1758 H       
 190 H190         -31.7629     9.5428    -6.2330 H       
 191 H191         -32.0233    11.2477    -5.7927 H       
 192 H192         -29.6133    11.0639    -7.2538 H       
 193 H193         -31.1447    11.6279   -10.3427 H       
 194 H194         -33.0985    10.6366    -7.6600 H       
 195 H195         -33.1288    11.0524    -9.2875 H       
 196 H196         -32.0947    10.0793     0.0785 H       
 197 H197          21.6475    -2.5695     7.6732 H       
 198 H198          20.4131    -3.8416     7.8356 H       
 199 H199          21.0423    -3.4121     6.2269 H       
 200 H200          19.4006    -1.5874     8.0413 H       
 201 H201          20.0298    -1.1579     6.4326 H       
 202 H202          18.7119    -3.0010     5.4251 H       
 203 H203          18.0827    -3.4304     7.0338 H       
 204 H204          17.0702    -1.1763     7.2396 H       
 205 H205          17.6995    -0.7468     5.6309 H       
 206 H206          16.3816    -2.5898     4.6234 H       
 207 H207          15.7523    -3.0193     6.2321 H       
 208 H208          14.7399    -0.7651     6.4378 H       
 209 H209          15.3691    -0.3357     4.8291 H       
 210 H210          14.0512    -2.1787     3.8217 H       
 211 H211          13.4220    -2.6082     5.4304 H       
 212 H212          12.4095    -0.3540     5.6361 H       
 213 H213          13.0387     0.0755     4.0274 H       
 214 H214          11.7208    -1.7676     3.0199 H       
 215 H215          11.0916    -2.1970     4.6286 H       
 216 H216          10.0792     0.0571     4.8344 H       
 217 H217          10.7084     0.4866     3.2257 H       
 218 H218           9.3905    -1.3564     2.2182 H       
 219 H219           8.7613    -1.7859     3.8269 H       
 220 H220           7.7488     0.4683     4.0326 H       
 221 H221           8.3780     0.8977     2.4239 H       
 222 H222           7.0601    -0.9453     1.4165 H       
 223 H223           6.4309    -1.3748     3.0252 H       
 224 H224           5.4184     0.8794     3.2309 H       
 225 H225           6.0477     1.3088     1.6222 H       
 226 H226           4.1005    -0.9636     2.2234 H       
 227 H227           4.7297    -0.5342     0.6147 H       
@<TRIPOS>BOND
   1    1    2 2
   2    1    4 1
   3    1   13 am
   4    3   94 am
   5    3    4 1
   6    3  111 1
   7    4    5 1
   8    4  112 1
   9    5    6 1
  10    5  113 1
  11    5  114 1
  12    6    7 2
  13    6   10 1
  14    7    8 1
  15    7  115 1
  16    8    9 1
  17    8  116 1
  18    9   10 2
  19    9  117 1
  20   11   12 2
  21   11   14 1
  22   11   18 am
  23   13   14 1
  24   13  118 1
  25   14   15 1
  26   14  119 1
  27   15  120 1
  28   15  121 1
  29   15  122 1
  30   16   17 2
  31   16   19 1
  32   16   25 am
  33   18   19 1
  34   18  123 1
  35   19   20 1
  36   19  124 1
  37   20   21 1
  38   20   22 1
  39   20  125 1
  40   21  126 1
  41   21  127 1
  42   21  128 1
  43   22  129 1
  44   22  130 1
  45   22  131 1
  46   23   24 2
  47   23   26 1
  48   23   35 am
  49   25   26 1
  50   25  132 1
  51   26   27 1
  52   26  133 1
  53   27   28 1
  54   27  134 1
  55   27  135 1
  56   28   29 2
  57   28   32 1
  58   29   30 1
  59   29  136 1
  60   30   31 1
  61   30  137 1
  62   31   32 2
  63   31  138 1
  64   33   34 2
  65   33   36 1
  66   33   40 am
  67   35   36 1
  68   35  139 1
  69   36   37 1
  70   36  140 1
  71   37  141 1
  72   37  142 1
  73   37  143 1
  74   38   39 2
  75   38   41 1
  76   38   52 am
  77   40   41 1
  78   40  144 1
  79   41   42 1
  80   41  145 1
  81   42   43 1
  82   42  146 1
  83   42  147 1
  84   43   44 ar
  85   43   49 ar
  86   44   45 ar
  87   44  148 1
  88   45   46 ar
  89   45  149 1
  90   46   47 1
  91   46   48 ar
  92   47  150 1
  93   48   49 ar
  94   48  151 1
  95   49  152 1
  96   50   51 2
  97   50   53 1
  98   50   63 am
  99   52   53 1
 100   52  153 1
 101   53   54 1
 102   53  154 1
 103   54   55 1
 104   54  155 1
 105   54  156 1
 106   55   56 1
 107   55  157 1
 108   55  158 1
 109   56   57 1
 110   56  159 1
 111   56  160 1
 112   57   58 1
 113   57  161 1
 114   58   59 2
 115   58   60 1
 116   59  162 1
 117   60  163 1
 118   60  164 1
 119   61   62 2
 120   61   64 1
 121   61   73 am
 122   63   64 1
 123   63  165 1
 124   64   65 1
 125   64  166 1
 126   65   66 1
 127   65  167 1
 128   65  168 1
 129   66   67 2
 130   66   70 1
 131   67   68 1
 132   67  169 1
 133   68   69 1
 134   68  170 1
 135   69   70 2
 136   69  171 1
 137   71   72 2
 138   71   74 1
 139   71   84 am
 140   73   74 1
 141   73  172 1
 142   74   75 1
 143   74  173 1
 144   75   76 1
 145   75  174 1
 146   75  175 1
 147   76   77 1
 148   76  176 1
 149   76  177 1
 150   77   78 1
 151   77  178 1
 152   77  179 1
 153   78   79 1
 154   78  180 1
 155   79   80 2
 156   79   81 1
 157   80  181 1
 158   81  182 1
 159   81  183 1
 160   82   83 2
 161   82   85 1
 162   82   93 1
 163   84   85 1
 164   84  184 1
 165   85   86 1
 166   85  185 1
 167   86   87 1
 168   86  186 1
 169   86  187 1
 170   87   88 1
 171   87  188 1
 172   87  189 1
 173   88   89 1
 174   88  190 1
 175   88  191 1
 176   89   90 1
 177   89  192 1
 178   90   91 2
 179   90   92 1
 180   91  193 1
 181   92  194 1
 182   92  195 1
 183   93  196 1
 184   94   95 2
 185   94  110 1
 186   96   97 1
 187   96  197 1
 188   96  198 1
 189   96  199 1
 190   97   98 1
 191   97  200 1
 192   97  201 1
 193   98   99 1
 194   98  202 1
 195   98  203 1
 196   99  100 1
 197   99  204 1
 198   99  205 1
 199  100  101 1
 200  100  206 1
 201  100  207 1
 202  101  102 1
 203  101  208 1
 204  101  209 1
 205  102  103 1
 206  102  210 1
 207  102  211 1
 208  103  104 1
 209  103  212 1
 210  103  213 1
 211  104  105 1
 212  104  214 1
 213  104  215 1
 214  105  106 1
 215  105  216 1
 216  105  217 1
 217  106  107 1
 218  106  218 1
 219  106  219 1
 220  107  108 1
 221  107  220 1
 222  107  221 1
 223  108  109 1
 224  108  222 1
 225  108  223 1
 226  109  110 1
 227  109  224 1
 228  109  225 1
 229  110  226 1
 230  110  227 1

#	End of record

