#	Name: ASD01816134
#	Creating user name:	WinNT
#	Creation time:	15. 06. 2019 19:34

#	Modifying user name:	WinNT
#	Modification time:	15. 06. 2019 19:34

#	Program:	/corina/corina34_cracker 3.40 0067  02.08.2006

@<TRIPOS>MOLECULE
ASD01816134
  60   65    0    0    0
SMALL
NO_CHARGES


@<TRIPOS>ATOM
   1 C1            -0.6049     0.6096     0.3102 C.ar    
   2 C2            -0.3391    -0.7497     0.2736 C.ar    
   3 C3             0.9577    -1.2101     0.1767 C.ar    
   4 C4             2.0142    -0.3084     0.1147 C.ar    
   5 C5             1.7413     1.0693     0.1516 C.ar    
   6 C6             0.4294     1.5211     0.2495 C.ar    
   7 N7             3.3177    -0.7639     0.0184 N.pl3   
   8 C8             4.3770     0.0589    -0.0444 C.2     
   9 C9             4.2336     1.4239    -0.0167 C.2     
  10 C10            2.8770     2.0086     0.0845 C.2     
  11 C11            5.1387     2.5680    -0.0641 C.2     
  12 N12            4.3583     3.6682     0.0042 N.am    
  13 N13            3.0124     3.3036     0.0922 N.2     
  14 O14            6.3557     2.5368    -0.1478 O.2     
  15 C15            3.5524    -2.2095    -0.0162 C.3     
  16 C16            3.5344    -2.6873    -1.4454 C.ar    
  17 N17            2.3830    -2.9842    -2.0161 N.ar    
  18 C18            2.3130    -3.4054    -3.2624 C.ar    
  19 C19            3.4683    -3.5530    -4.0270 C.ar    
  20 C20            4.7042    -3.2463    -3.4506 C.ar    
  21 C21            4.7251    -2.8021    -2.1398 C.ar    
  22 C22            4.8308     4.9866    -0.0110 C.ar    
  23 C23            4.4857     5.8627     1.0125 C.ar    
  24 C24            5.6496     5.4206    -1.0450 C.ar    
  25 C25            6.1141     6.7214    -1.0573 C.ar    
  26 C26            5.7650     7.5925    -0.0415 C.ar    
  27 C27            4.9545     7.1637     0.9935 C.ar    
  28 F28            3.6934     5.4437     2.0234 F       
  29 C29            3.3881    -4.0283    -5.4300 C.ar    
  30 C30            2.1502    -4.3317    -5.9946 C.ar    
  31 C31            2.0780    -4.7733    -7.2986 C.ar    
  32 C32            3.2383    -4.9162    -8.0502 C.ar    
  33 C33            4.4735    -4.6143    -7.4894 C.ar    
  34 C34            4.5500    -4.1668    -6.1876 C.ar    
  35 N35            3.1627    -5.3647    -9.3724 N.am    
  36 O36            1.2123    -4.3525    -9.6788 O.2     
  37 C37            2.1238    -4.9996   -10.1495 C.2     
  38 C38            2.0947    -5.3954   -11.6033 C.3     
  39 H39           -1.6250     0.9569     0.3820 H       
  40 H40           -1.1550    -1.4556     0.3217 H       
  41 H41            1.1525    -2.2721     0.1493 H       
  42 H42            0.2212     2.5804     0.2777 H       
  43 H43            5.3679    -0.3643    -0.1182 H       
  44 H44            4.5226    -2.4309     0.4287 H       
  45 H45            2.7699    -2.7182     0.5468 H       
  46 H46            1.3514    -3.6388    -3.6952 H       
  47 H47            5.6193    -3.3497    -4.0148 H       
  48 H48            5.6617    -2.5558    -1.6618 H       
  49 H49            5.9234     4.7414    -1.8388 H       
  50 H50            6.7512     7.0586    -1.8615 H       
  51 H51            6.1302     8.6088    -0.0542 H       
  52 H52            4.6837     7.8466     1.7852 H       
  53 H53            1.2483    -4.2212    -5.4107 H       
  54 H54            1.1192    -5.0089    -7.7363 H       
  55 H55            5.3739    -4.7260    -8.0753 H       
  56 H56            5.5101    -3.9324    -5.7523 H       
  57 H57            3.8580    -5.9386    -9.7304 H       
  58 H58            2.9909    -5.9680   -11.8420 H       
  59 H59            1.2119    -6.0049   -11.7963 H       
  60 H60            2.0602    -4.4994   -12.2232 H       
@<TRIPOS>BOND
   1    1    2 ar
   2    1    6 ar
   3    1   39 1
   4    2    3 ar
   5    2   40 1
   6    3    4 ar
   7    3   41 1
   8    4    5 ar
   9    4    7 1
  10    5    6 ar
  11    5   10 1
  12    6   42 1
  13    7    8 1
  14    7   15 1
  15    8    9 2
  16    8   43 1
  17    9   10 1
  18    9   11 1
  19   10   13 2
  20   11   12 am
  21   11   14 2
  22   12   13 1
  23   12   22 1
  24   15   16 1
  25   15   44 1
  26   15   45 1
  27   16   17 ar
  28   16   21 ar
  29   17   18 ar
  30   18   19 ar
  31   18   46 1
  32   19   20 ar
  33   19   29 1
  34   20   21 ar
  35   20   47 1
  36   21   48 1
  37   22   23 ar
  38   22   24 ar
  39   23   28 1
  40   23   27 ar
  41   24   25 ar
  42   24   49 1
  43   25   26 ar
  44   25   50 1
  45   26   27 ar
  46   26   51 1
  47   27   52 1
  48   29   30 ar
  49   29   34 ar
  50   30   31 ar
  51   30   53 1
  52   31   32 ar
  53   31   54 1
  54   32   33 ar
  55   32   35 1
  56   33   34 ar
  57   33   55 1
  58   34   56 1
  59   35   37 am
  60   35   57 1
  61   36   37 2
  62   37   38 1
  63   38   58 1
  64   38   59 1
  65   38   60 1

#	End of record

