#	Name: ASD01140113
#	Creating user name:	WinNT
#	Creation time:	15. 06. 2019 19:00

#	Modifying user name:	WinNT
#	Modification time:	15. 06. 2019 19:00

#	Program:	/corina/corina34_cracker 3.40 0067  02.08.2006

@<TRIPOS>MOLECULE
ASD01140113
  49   50    0    0    0
SMALL
NO_CHARGES


@<TRIPOS>ATOM
   1 C1            -0.0625     1.3127    -0.3993 C.3     
   2 C2             0.1252    -0.2122    -0.2491 C.3     
   3 C3             1.6325    -0.4068    -0.5254 C.3     
   4 C4             2.1524     0.9874    -0.8103 C.2     
   5 O5             1.2810     1.8727    -0.2929 O.3     
   6 O6             3.1723     1.2574    -1.3993 O.2     
   7 N7            -0.2123    -0.6441     1.1095 N.am    
   8 C8             2.3285    -0.9949     0.7037 C.3     
   9 C9             1.8393    -1.3121    -1.7413 C.3     
  10 S10           -1.7198    -1.2465     1.4364 S.o2    
  11 C11            3.7943    -1.2813     0.3714 C.3     
  12 C12            4.5217    -1.7477     1.6341 C.3     
  13 C13            1.1763    -0.6798    -2.9666 C.3     
  14 C14            1.2972    -1.6304    -4.1594 C.3     
  15 C15           -1.8877    -2.7502     0.5335 C.ar    
  16 O16           -1.7201    -1.6022     2.8121 O.2     
  17 O17           -2.6486    -0.3324     0.8698 O.2     
  18 C18           -1.5084    -3.9479     1.1109 C.ar    
  19 C19           -1.6390    -5.1283     0.4052 C.ar    
  20 C20           -2.1513    -5.1112    -0.8840 C.ar    
  21 C21           -2.5311    -3.9082    -1.4611 C.ar    
  22 C22           -2.4038    -2.7312    -0.7490 C.ar    
  23 O23           -2.2803    -6.2710    -1.5805 O.3     
  24 C24           -2.8151    -6.1778    -2.9024 C.3     
  25 H25           -0.4943     1.5469    -1.3723 H       
  26 H26           -0.6970     1.6965     0.3996 H       
  27 H27           -0.4739    -0.7485    -0.9850 H       
  28 H28            0.4473    -0.5773     1.8176 H       
  29 H29            2.2750    -0.2827     1.5271 H       
  30 H30            1.8336    -1.9221     0.9926 H       
  31 H31            2.9066    -1.4325    -1.9273 H       
  32 H32            1.3918    -2.2872    -1.5486 H       
  33 H33            3.8490    -2.0609    -0.3884 H       
  34 H34            4.2656    -0.3733    -0.0050 H       
  35 H35            4.4670    -0.9681     2.3939 H       
  36 H36            4.0504    -2.6556     2.0105 H       
  37 H37            5.5659    -1.9517     1.3974 H       
  38 H38            0.1232    -0.4946    -2.7549 H       
  39 H39            1.6709     0.2627    -3.2016 H       
  40 H40            2.3502    -1.8156    -4.3711 H       
  41 H41            0.8026    -2.5729    -3.9245 H       
  42 H42            0.8248    -1.1799    -5.0323 H       
  43 H43           -1.1093    -3.9606     2.1144 H       
  44 H44           -1.3422    -6.0635     0.8565 H       
  45 H45           -2.9302    -3.8923    -2.4645 H       
  46 H46           -2.6994    -1.7944    -1.1979 H       
  47 H47           -3.8162    -5.7487    -2.8599 H       
  48 H48           -2.1725    -5.5410    -3.5103 H       
  49 H49           -2.8647    -7.1725    -3.3452 H       
@<TRIPOS>BOND
   1    1    2 1
   2    1    5 1
   3    1   25 1
   4    1   26 1
   5    2    3 1
   6    2    7 1
   7    2   27 1
   8    3    4 1
   9    3    9 1
  10    3    8 1
  11    4    5 1
  12    4    6 2
  13    7   10 am
  14    7   28 1
  15    8   11 1
  16    8   29 1
  17    8   30 1
  18    9   13 1
  19    9   31 1
  20    9   32 1
  21   10   15 1
  22   10   16 2
  23   10   17 2
  24   11   12 1
  25   11   33 1
  26   11   34 1
  27   12   35 1
  28   12   36 1
  29   12   37 1
  30   13   14 1
  31   13   38 1
  32   13   39 1
  33   14   40 1
  34   14   41 1
  35   14   42 1
  36   15   18 ar
  37   15   22 ar
  38   18   19 ar
  39   18   43 1
  40   19   20 ar
  41   19   44 1
  42   20   21 ar
  43   20   23 1
  44   21   22 ar
  45   21   45 1
  46   22   46 1
  47   23   24 1
  48   24   47 1
  49   24   48 1
  50   24   49 1

#	End of record

