#	Name: ASD04230144
#	Creating user name:	WinNT
#	Creation time:	15. 06. 2019 20:48

#	Modifying user name:	WinNT
#	Modification time:	15. 06. 2019 20:48

#	Program:	/corina/corina34_cracker 3.40 0067  02.08.2006

@<TRIPOS>MOLECULE
ASD04230144
  47   51    0    0    0
SMALL
NO_CHARGES


@<TRIPOS>ATOM
   1 C1             1.5358     4.6863     1.7198 C.ar    
   2 C2             2.5436     5.3841     2.3696 C.ar    
   3 C3             3.8002     4.8590     2.4684 C.ar    
   4 C4             4.0822     3.6080     1.9007 C.ar    
   5 C5             3.0562     2.8818     1.2694 C.ar    
   6 C6             1.7830     3.4397     1.1727 C.ar    
   7 C7             5.3931     3.0678     1.9625 C.2     
   8 C8             5.6626     1.9284     1.2160 C.2     
   9 C9             4.5671     1.3877     0.3908 C.2     
  10 O10            3.2977     1.6422     0.7797 O.3     
  11 C11            6.9877     1.2871     1.2470 C.2     
  12 N12            7.2188     0.1818     0.5112 N.am    
  13 O13            7.8737     1.7548     1.9366 O.2     
  14 C14            8.5058    -0.3623     0.4518 C.ar    
  15 C15            8.6753    -1.7390     0.3696 C.ar    
  16 C16            9.9457    -2.2802     0.3103 C.ar    
  17 C17           11.0531    -1.4563     0.3324 C.ar    
  18 C18           10.8926    -0.0741     0.4151 C.ar    
  19 C19            9.6134     0.4724     0.4692 C.ar    
  20 C20           12.0821     0.8128     0.4394 C.ar    
  21 O21            4.7981     0.7328    -0.6084 O.2     
  22 O22            0.7871     2.7614     0.5428 O.3     
  23 C23           13.3571     0.2659     0.3739 C.ar    
  24 C24           11.9186     2.1989     0.5225 C.ar    
  25 C25           13.0127     3.0328     0.5450 C.ar    
  26 C26           14.2964     2.5004     0.4854 C.ar    
  27 C27           14.4651     1.1083     0.3970 C.ar    
  28 O28           15.3799     3.3036     0.5069 O.3     
  29 C29           16.6277     2.8264     0.4518 C.2     
  30 C30           16.9039     1.5123     0.3703 C.2     
  31 C31           15.8395     0.5730     0.3354 C.2     
  32 O32           16.0518    -0.6252     0.2622 O.2     
  33 H33            0.5487     5.1179     1.6442 H       
  34 H34            2.3325     6.3515     2.8009 H       
  35 H35            4.5760     5.4065     2.9828 H       
  36 H36            6.1573     3.5287     2.5708 H       
  37 H37            6.4924    -0.2363     0.0228 H       
  38 H38            7.8121    -2.3878     0.3524 H       
  39 H39           10.0724    -3.3508     0.2468 H       
  40 H40           12.0442    -1.8828     0.2858 H       
  41 H41            9.4840     1.5427     0.5333 H       
  42 H42            0.2742     2.1848     1.1255 H       
  43 H43           13.4879    -0.8040     0.3058 H       
  44 H44           10.9246     2.6188     0.5691 H       
  45 H45           12.8746     4.1020     0.6086 H       
  46 H46           17.4497     3.5266     0.4733 H       
  47 H47           17.9286     1.1741     0.3273 H       
@<TRIPOS>BOND
   1    1    2 ar
   2    1    6 ar
   3    1   33 1
   4    2    3 ar
   5    2   34 1
   6    3    4 ar
   7    3   35 1
   8    4    5 ar
   9    4    7 1
  10    5    6 ar
  11    5   10 1
  12    6   22 1
  13    7    8 2
  14    7   36 1
  15    8    9 1
  16    8   11 1
  17    9   10 1
  18    9   21 2
  19   11   12 am
  20   11   13 2
  21   12   14 1
  22   12   37 1
  23   14   15 ar
  24   14   19 ar
  25   15   16 ar
  26   15   38 1
  27   16   17 ar
  28   16   39 1
  29   17   18 ar
  30   17   40 1
  31   18   19 ar
  32   18   20 1
  33   19   41 1
  34   20   24 ar
  35   20   23 ar
  36   22   42 1
  37   23   27 ar
  38   23   43 1
  39   24   25 ar
  40   24   44 1
  41   25   26 ar
  42   25   45 1
  43   26   27 ar
  44   26   28 1
  45   27   31 1
  46   28   29 1
  47   29   30 2
  48   29   46 1
  49   30   31 1
  50   30   47 1
  51   31   32 2

#	End of record

