#	Name: ASD08830043
#	Creating user name:	WinNT
#	Creation time:	15. 06. 2019 21:19

#	Modifying user name:	WinNT
#	Modification time:	15. 06. 2019 21:19

#	Program:	/corina/corina34_cracker 3.40 0067  02.08.2006

@<TRIPOS>MOLECULE
ASD08830043
  42   45    0    0    0
SMALL
NO_CHARGES


@<TRIPOS>ATOM
   1 C1            -0.0172     1.4144     0.0098 C.ar    
   2 C2             0.0021    -0.0041     0.0020 C.ar    
   3 C3             1.1959     2.1287     0.0021 C.ar    
   4 C4             2.3769     1.4621    -0.0133 C.ar    
   5 C5             2.4108     0.0535    -0.0217 C.ar    
   6 C6             1.2315    -0.6786    -0.0139 C.ar    
   7 C7             3.7045    -0.6459    -0.0393 C.2     
   8 C8             4.9879     0.1439    -0.0483 C.3     
   9 C9             6.1781    -0.8173    -0.0663 C.3     
  10 N10            7.4292    -0.0475    -0.0751 N.3     
  11 O11            3.7384    -1.8581    -0.0465 O.2     
  12 C12            8.5968    -0.9301     0.1476 C.3     
  13 C13           -1.2511     2.0843     0.0194 C.ar    
  14 C14           -1.2141    -0.7105     0.0099 C.ar    
  15 C15           -2.3907    -0.0259     0.0249 C.ar    
  16 C16           -2.4091     1.3672     0.0210 C.ar    
  17 C17            9.7267    -0.3222    -0.6520 C.ar    
  18 C18            9.1820     0.5525    -1.5766 C.ar    
  19 C19            7.6795     0.5429    -1.4095 C.3     
  20 C20           11.0957    -0.5008    -0.5941 C.ar    
  21 C21           11.9211     0.1932    -1.4587 C.ar    
  22 C22           11.3771     1.0670    -2.3818 C.ar    
  23 C23           10.0078     1.2459    -2.4407 C.ar    
  24 H24            1.1860     3.2087     0.0080 H       
  25 H25            3.3029     2.0179    -0.0195 H       
  26 H26            1.2604    -1.7581    -0.0203 H       
  27 H27            5.0187     0.7770    -0.9350 H       
  28 H28            5.0375     0.7668     0.8448 H       
  29 H29            6.1473    -1.4504     0.8205 H       
  30 H30            6.1285    -1.4403    -0.9594 H       
  31 H31            8.8548    -0.9532     1.2064 H       
  32 H32            8.3815    -1.9369    -0.2102 H       
  33 H33           -1.2819     3.1638     0.0257 H       
  34 H34           -1.2146    -1.7904     0.0038 H       
  35 H35           -3.3233    -0.5705     0.0306 H       
  36 H36           -3.3559     1.8865     0.0335 H       
  37 H37            7.2183    -0.0692    -2.1846 H       
  38 H38            7.2897     1.5600    -1.4504 H       
  39 H39           11.5210    -1.1828     0.1274 H       
  40 H40           12.9910     0.0531    -1.4130 H       
  41 H41           12.0221     1.6097    -3.0569 H       
  42 H42            9.5832     1.9285    -3.1619 H       
@<TRIPOS>BOND
   1    1    2 ar
   2    1    3 ar
   3    1   13 ar
   4    2   14 ar
   5    2    6 ar
   6    3    4 ar
   7    3   24 1
   8    4    5 ar
   9    4   25 1
  10    5    6 ar
  11    5    7 1
  12    6   26 1
  13    7    8 1
  14    7   11 2
  15    8    9 1
  16    8   27 1
  17    8   28 1
  18    9   10 1
  19    9   29 1
  20    9   30 1
  21   10   12 1
  22   10   19 1
  23   12   17 1
  24   12   31 1
  25   12   32 1
  26   13   16 ar
  27   13   33 1
  28   14   15 ar
  29   14   34 1
  30   15   16 ar
  31   15   35 1
  32   16   36 1
  33   17   18 ar
  34   17   20 ar
  35   18   19 1
  36   18   23 ar
  37   19   37 1
  38   19   38 1
  39   20   21 ar
  40   20   39 1
  41   21   22 ar
  42   21   40 1
  43   22   23 ar
  44   22   41 1
  45   23   42 1

#	End of record

