#	Name: ASD02508356
#	Creating user name:	WinNT
#	Creation time:	15. 06. 2019 20:24

#	Modifying user name:	WinNT
#	Modification time:	15. 06. 2019 20:24

#	Program:	/corina/corina34_cracker 3.40 0067  02.08.2006

@<TRIPOS>MOLECULE
ASD02508356
  56   60    0    0    0
SMALL
NO_CHARGES


@<TRIPOS>ATOM
   1 C1            -0.0167     1.3818     0.0096 C.ar    
   2 C2             0.0021    -0.0041     0.0020 C.ar    
   3 C3            -1.1791    -0.7210     0.0094 C.ar    
   4 C4            -2.3927    -0.0595     0.0241 C.ar    
   5 C5            -2.4226     1.3232     0.0318 C.ar    
   6 C6            -1.2470     2.0428     0.0303 C.ar    
   7 N7             1.2734     1.9143     0.0002 N.am    
   8 C8             2.2636     0.8343    -0.0151 C.3     
   9 C9             1.4421    -0.4653    -0.0142 C.3     
  10 S10           -3.8979    -0.9754     0.0324 S.o2    
  11 C11           -4.3283    -1.2562     1.7178 C.ar    
  12 C12           -5.1193    -0.3432     2.3891 C.ar    
  13 C13           -3.8789    -2.3924     2.3648 C.ar    
  14 C14           -4.2159    -2.6171     3.6860 C.ar    
  15 C15           -5.0070    -1.7032     4.3665 C.ar    
  16 C16           -5.4604    -0.5622     3.7155 C.ar    
  17 O17           -5.3375    -1.9420     5.6650 O.3     
  18 C18           -5.8176    -0.8260     6.4226 C.3     
  19 C19           -6.8598    -0.0827     5.5761 C.3     
  20 O20           -6.2314     0.3512     4.3665 O.3     
  21 O21           -4.8952    -0.1134    -0.4982 O.2     
  22 O22           -3.5959    -2.2485    -0.5220 O.2     
  23 C23            3.1219     0.9189    -1.2788 C.3     
  24 S24            1.6327     3.5309     0.0049 S.o2    
  25 C25            2.0750     5.4285     1.8990 C.ar    
  26 C26            1.0564     6.3600     1.9742 C.ar    
  27 C27            1.3562     7.7031     2.1049 C.ar    
  28 C28            2.6747     8.1147     2.1608 C.ar    
  29 C29            3.6933     7.1831     2.0864 C.ar    
  30 C30            3.3935     5.8402     1.9543 C.ar    
  31 O31            2.9102     3.6078    -0.6125 O.2     
  32 O32            0.4952     4.1443    -0.5860 O.2     
  33 C33            1.7481     3.9637     1.7627 C.3     
  34 H34           -1.1540    -1.8007     0.0034 H       
  35 H35           -3.3703     1.8409     0.0433 H       
  36 H36           -1.2773     3.1223     0.0363 H       
  37 H37            2.8922     0.8849     0.8740 H       
  38 H38            1.6629    -1.0543     0.8760 H       
  39 H39            1.6458    -1.0446    -0.9148 H       
  40 H40           -5.4719     0.5419     1.8804 H       
  41 H41           -3.2637    -3.1057     1.8366 H       
  42 H42           -3.8634    -3.5053     4.1892 H       
  43 H43           -6.2778    -1.1790     7.3455 H       
  44 H44           -4.9895    -0.1571     6.6567 H       
  45 H45           -7.6853    -0.7532     5.3373 H       
  46 H46           -7.2338     0.7799     6.1275 H       
  47 H47            3.6404     1.8774    -1.3024 H       
  48 H48            3.8530     0.1103    -1.2763 H       
  49 H49            2.4839     0.8291    -2.1580 H       
  50 H50            0.0263     6.0384     1.9306 H       
  51 H51            0.5604     8.4309     2.1630 H       
  52 H52            2.9090     9.1641     2.2621 H       
  53 H53            4.7234     7.5048     2.1293 H       
  54 H54            4.1894     5.1124     1.8958 H       
  55 H55            0.7958     3.7571     2.2511 H       
  56 H56            2.5333     3.3710     2.2321 H       
@<TRIPOS>BOND
   1    1    2 ar
   2    1    7 1
   3    1    6 ar
   4    2    3 ar
   5    2    9 1
   6    3    4 ar
   7    3   34 1
   8    4    5 ar
   9    4   10 1
  10    5    6 ar
  11    5   35 1
  12    6   36 1
  13    7    8 1
  14    7   24 am
  15    8    9 1
  16    8   23 1
  17    8   37 1
  18    9   38 1
  19    9   39 1
  20   10   11 1
  21   10   21 2
  22   10   22 2
  23   11   12 ar
  24   11   13 ar
  25   12   16 ar
  26   12   40 1
  27   13   14 ar
  28   13   41 1
  29   14   15 ar
  30   14   42 1
  31   15   16 ar
  32   15   17 1
  33   16   20 1
  34   17   18 1
  35   18   19 1
  36   18   43 1
  37   18   44 1
  38   19   20 1
  39   19   45 1
  40   19   46 1
  41   23   47 1
  42   23   48 1
  43   23   49 1
  44   24   31 2
  45   24   32 2
  46   24   33 1
  47   25   26 ar
  48   25   30 ar
  49   25   33 1
  50   26   27 ar
  51   26   50 1
  52   27   28 ar
  53   27   51 1
  54   28   29 ar
  55   28   52 1
  56   29   30 ar
  57   29   53 1
  58   30   54 1
  59   33   55 1
  60   33   56 1

#	End of record

