#	Name: ASD01410694
#	Creating user name:	WinNT
#	Creation time:	15. 06. 2019 19:18

#	Modifying user name:	WinNT
#	Modification time:	15. 06. 2019 19:18

#	Program:	/corina/corina34_cracker 3.40 0067  02.08.2006

@<TRIPOS>MOLECULE
ASD01410694
  84   87    0    0    0
SMALL
NO_CHARGES


@<TRIPOS>ATOM
   1 C1             3.5020     4.9149    -3.4428 C.ar    
   2 C2             3.9814     4.1439    -4.5125 C.ar    
   3 C3             4.9221     3.1435    -4.2573 C.ar    
   4 N4             5.3533     2.9256    -3.0322 N.ar    
   5 C5             4.9197     3.6363    -2.0029 C.ar    
   6 C6             3.9835     4.6501    -2.1764 C.ar    
   7 O7             5.3952     3.3717    -0.7609 O.3     
   8 C8             6.2297     2.3085    -0.6097 C.ar    
   9 C9             7.5804     2.4360    -0.9237 C.ar    
  10 C10            8.4366     1.3609    -0.7729 C.ar    
  11 C11            7.9539     0.1469    -0.3071 C.ar    
  12 C12            6.5932     0.0129     0.0109 C.ar    
  13 C13            5.7359     1.1070    -0.1398 C.ar    
  14 F14            8.0565     3.6159    -1.3783 F       
  15 N15            8.8173    -0.9370    -0.1557 N.am    
  16 C16            9.4838    -1.1109     1.0028 C.2     
  17 C17            9.0002    -1.8871    -1.2557 C.3     
  18 O18           10.2823    -2.0171     1.1129 O.2     
  19 C19            9.2368    -0.1793     2.1613 C.3     
  20 C20           10.4380    -0.2137     3.1084 C.3     
  21 C21           10.6341    -1.6379     3.6320 C.3     
  22 C22            9.3782    -2.0819     4.3847 C.3     
  23 C23            8.1771    -2.0475     3.4377 C.3     
  24 C24            7.9810    -0.6234     2.9141 C.3     
  25 C25            7.9640    -1.6099    -2.3467 C.3     
  26 C26           10.4069    -1.7302    -1.8366 C.3     
  27 C27            3.4997     4.3853    -5.8835 C.2     
  28 O28           11.3720    -2.1349    -0.8636 O.3     
  29 C29           12.7259    -2.0267    -1.3079 C.3     
  30 C30            9.5743    -3.5061     4.9083 C.3     
  31 O31            6.6568    -1.8977    -1.8462 O.3     
  32 C32            3.9658     3.6409    -6.9001 C.2     
  33 C33            5.6219    -1.7858    -2.8253 C.3     
  34 C34            3.4842     3.8823    -8.2708 C.ar    
  35 C35            3.9722     3.1052    -9.3245 C.ar    
  36 C36            3.5096     3.3448   -10.6057 C.ar    
  37 C37            2.5740     4.3528   -10.7957 C.ar    
  38 C38            2.1329     5.0847    -9.7081 C.ar    
  39 N39            2.5838     4.8349    -8.4961 N.ar    
  40 C40            1.1178     6.1797    -9.9120 C.3     
  41 C41            3.5000     5.4508    -0.9949 C.3     
  42 F42            2.5692     6.4023    -1.4257 F       
  43 F43            2.8965     4.5950    -0.0671 F       
  44 F44            4.5852     6.0984    -0.3948 F       
  45 C45            6.0723    -1.2724     0.5060 C.2     
  46 O46            6.8296    -2.2051     0.6891 O.2     
  47 O47            4.7556    -1.4145     0.7561 O.3     
  48 H48            2.7776     5.6990    -3.6067 H       
  49 H49            5.2991     2.5431    -5.0720 H       
  50 H50            9.4830     1.4665    -1.0186 H       
  51 H51            4.6881     1.0107     0.1034 H       
  52 H52            8.8723    -2.9034    -0.8830 H       
  53 H53            9.0972     0.8353     1.7883 H       
  54 H54           11.3327     0.1027     2.5721 H       
  55 H55           10.2594     0.4601     3.9464 H       
  56 H56           10.8127    -2.3117     2.7940 H       
  57 H57           11.4898    -1.6623     4.3067 H       
  58 H58            9.1996    -1.4081     5.2227 H       
  59 H59            8.3557    -2.7213     2.5997 H       
  60 H60            7.2824    -2.3639     3.9739 H       
  61 H61            7.8024     0.0504     3.7520 H       
  62 H62            7.1253    -0.5989     2.2394 H       
  63 H63            8.0177    -0.5617    -2.6409 H       
  64 H64            8.1691    -2.2409    -3.2114 H       
  65 H65           10.5043    -2.3529    -2.7259 H       
  66 H66           10.5754    -0.6868    -2.1034 H       
  67 H67            2.7719     5.1608    -6.0714 H       
  68 H68           12.9425    -0.9896    -1.5637 H       
  69 H69           13.3963    -2.3525    -0.5126 H       
  70 H70           12.8714    -2.6556    -2.1862 H       
  71 H71           10.4300    -3.5306     5.5830 H       
  72 H72            8.6796    -3.8224     5.4446 H       
  73 H73            9.7529    -4.1799     4.0703 H       
  74 H74            4.6936     2.8654    -6.7122 H       
  75 H75            4.6745    -2.1045    -2.3907 H       
  76 H76            5.5413    -0.7490    -3.1519 H       
  77 H77            5.8606    -2.4185    -3.6802 H       
  78 H78            4.7003     2.3289    -9.1412 H       
  79 H79            3.8685     2.7607   -11.4402 H       
  80 H80            2.1941     4.5640   -11.7844 H       
  81 H81            0.1137     5.7672    -9.8139 H       
  82 H82            1.2662     6.9569    -9.1623 H       
  83 H83            1.2394     6.6071   -10.9073 H       
  84 H84            4.4607    -2.2767     1.0798 H       
@<TRIPOS>BOND
   1    1    2 ar
   2    1    6 ar
   3    1   48 1
   4    2    3 ar
   5    2   27 1
   6    3    4 ar
   7    3   49 1
   8    4    5 ar
   9    5    6 ar
  10    5    7 1
  11    6   41 1
  12    7    8 1
  13    8    9 ar
  14    8   13 ar
  15    9   10 ar
  16    9   14 1
  17   10   11 ar
  18   10   50 1
  19   11   12 ar
  20   11   15 1
  21   12   13 ar
  22   12   45 1
  23   13   51 1
  24   15   16 am
  25   15   17 1
  26   16   18 2
  27   16   19 1
  28   17   25 1
  29   17   26 1
  30   17   52 1
  31   19   20 1
  32   19   24 1
  33   19   53 1
  34   20   21 1
  35   20   54 1
  36   20   55 1
  37   21   22 1
  38   21   56 1
  39   21   57 1
  40   22   23 1
  41   22   30 1
  42   22   58 1
  43   23   24 1
  44   23   59 1
  45   23   60 1
  46   24   61 1
  47   24   62 1
  48   25   31 1
  49   25   63 1
  50   25   64 1
  51   26   28 1
  52   26   65 1
  53   26   66 1
  54   27   32 2
  55   27   67 1
  56   28   29 1
  57   29   68 1
  58   29   69 1
  59   29   70 1
  60   30   71 1
  61   30   72 1
  62   30   73 1
  63   31   33 1
  64   32   34 1
  65   32   74 1
  66   33   75 1
  67   33   76 1
  68   33   77 1
  69   34   35 ar
  70   34   39 ar
  71   35   36 ar
  72   35   78 1
  73   36   37 ar
  74   36   79 1
  75   37   38 ar
  76   37   80 1
  77   38   39 ar
  78   38   40 1
  79   40   81 1
  80   40   82 1
  81   40   83 1
  82   41   42 1
  83   41   43 1
  84   41   44 1
  85   45   46 2
  86   45   47 1
  87   47   84 1

#	End of record

