#	Name: ASD04880287
#	Creating user name:	WinNT
#	Creation time:	15. 06. 2019 20:53

#	Modifying user name:	WinNT
#	Modification time:	15. 06. 2019 20:53

#	Program:	/corina/corina34_cracker 3.40 0067  02.08.2006

@<TRIPOS>MOLECULE
ASD04880287
  37   39    0    0    0
SMALL
NO_CHARGES


@<TRIPOS>ATOM
   1 C1            -0.0122     1.4645     0.0380 C.3     
   2 N2             0.0038    -0.0070     0.0396 N.am    
   3 N3             1.3266    -0.4431     0.0791 N.2     
   4 C4             2.1943     0.5092     0.1040 C.2     
   5 C5             1.4816     1.8425     0.0819 C.3     
   6 C6            -1.0835    -0.8028     0.0088 C.2     
   7 C7            -0.9242    -2.2672    -0.1123 C.ar    
   8 O8            -2.1954    -0.3161     0.0805 O.2     
   9 C9            -2.0361    -3.1040    -0.0069 C.ar    
  10 C10            3.6564     0.3268     0.1479 C.ar    
  11 C11            4.2017    -0.9593     0.1650 C.ar    
  12 C12            5.5697    -1.1261     0.2056 C.ar    
  13 C13            6.4061    -0.0188     0.2299 C.ar    
  14 C14            5.8688     1.2643     0.2134 C.ar    
  15 C15            4.5013     1.4402     0.1666 C.ar    
  16 F16            6.6870     2.3390     0.2377 F       
  17 O17            7.7539    -0.1885     0.2703 O.3     
  18 C18            8.2384    -1.5328     0.2856 C.3     
  19 C19            0.3385    -2.8186    -0.3382 C.ar    
  20 C20            0.4815    -4.1859    -0.4509 C.ar    
  21 C21           -0.6227    -5.0121    -0.3406 C.ar    
  22 C22           -1.8798    -4.4723    -0.1216 C.ar    
  23 F23           -2.9536    -5.2852    -0.0144 F       
  24 H24           -0.4768     1.8420    -0.8729 H       
  25 H25           -0.5298     1.8434     0.9192 H       
  26 H26            1.7588     2.4095    -0.8069 H       
  27 H27            1.7058     2.4109     0.9845 H       
  28 H28           -3.0160    -2.6833     0.1641 H       
  29 H29            3.5523    -1.8220     0.1469 H       
  30 H30            5.9913    -2.1203     0.2188 H       
  31 H31            4.0841     2.4363     0.1539 H       
  32 H32            9.3279    -1.5260     0.3182 H       
  33 H33            7.8518    -2.0483     1.1648 H       
  34 H34            7.9050    -2.0494    -0.6144 H       
  35 H35            1.2018    -2.1756    -0.4251 H       
  36 H36            1.4581    -4.6126    -0.6260 H       
  37 H37           -0.5048    -6.0820    -0.4296 H       
@<TRIPOS>BOND
   1    1    2 1
   2    1    5 1
   3    1   24 1
   4    1   25 1
   5    2    3 1
   6    2    6 am
   7    3    4 2
   8    4    5 1
   9    4   10 1
  10    5   26 1
  11    5   27 1
  12    6    7 1
  13    6    8 2
  14    7   19 ar
  15    7    9 ar
  16    9   22 ar
  17    9   28 1
  18   10   11 ar
  19   10   15 ar
  20   11   12 ar
  21   11   29 1
  22   12   13 ar
  23   12   30 1
  24   13   14 ar
  25   13   17 1
  26   14   15 ar
  27   14   16 1
  28   15   31 1
  29   17   18 1
  30   18   32 1
  31   18   33 1
  32   18   34 1
  33   19   20 ar
  34   19   35 1
  35   20   21 ar
  36   20   36 1
  37   21   22 ar
  38   21   37 1
  39   22   23 1

#	End of record

