#	Name: ASD01840541
#	Creating user name:	WinNT
#	Creation time:	15. 06. 2019 19:37

#	Modifying user name:	WinNT
#	Modification time:	15. 06. 2019 19:37

#	Program:	/corina/corina34_cracker 3.40 0067  02.08.2006

@<TRIPOS>MOLECULE
ASD01840541
  51   56    0    0    0
SMALL
NO_CHARGES


@<TRIPOS>ATOM
   1 C1            -0.8707     1.6338    -0.0169 C.3     
   2 C2            -0.3628     0.2171    -0.0951 C.ar    
   3 C3            -0.4581    -0.4865    -1.2656 C.ar    
   4 C4             0.0273    -1.8020    -1.2950 C.ar    
   5 C5             0.0827    -2.8181    -2.3574 C.2     
   6 O6            -0.3252    -2.6601    -3.4919 O.2     
   7 N7             0.6488    -3.9462    -1.8947 N.am    
   8 C8             1.0078    -3.7495    -0.4857 C.3     
   9 C9             0.5868    -2.3428    -0.1351 C.ar    
  10 N10            0.6601    -1.6339     0.9690 N.ar    
  11 C11            0.2129    -0.3857     1.0223 C.ar    
  12 N12            0.3153     0.3263     2.2053 N.3     
  13 C13            1.5995     1.0299     2.2859 C.3     
  14 C14            1.6560     1.8065     3.6065 C.3     
  15 C15            1.8700     0.8064     4.7453 C.3     
  16 O16            1.7677     1.4850     5.9987 O.3     
  17 C17            2.8917     2.0882     6.4673 C.ar    
  18 C18            4.0363     2.1276     5.6846 C.ar    
  19 C19            5.1790     2.7419     6.1622 C.ar    
  20 C20            5.1807     3.3155     7.4170 C.ar    
  21 C21            6.2424     4.0440     8.2077 C.3     
  22 O22            5.5438     4.7595     9.2429 O.3     
  23 C23            4.3602     3.9814     9.4987 C.3     
  24 C24            4.0375     3.2774     8.2013 C.ar    
  25 C25            2.8941     2.6708     7.7274 C.ar    
  26 C26            0.8144    -0.2902     4.6756 C.3     
  27 C27           -0.6554     0.0909     4.5485 C.3     
  28 C28            0.0872    -0.5428     3.3625 C.3     
  29 H29           -0.0474     2.3253    -0.1961 H       
  30 H30           -1.6430     1.7851    -0.7711 H       
  31 H31           -1.2889     1.8157     0.9731 H       
  32 H32           -0.8968    -0.0393    -2.1453 H       
  33 H33            0.7954    -4.7564    -2.4075 H       
  34 H34            0.4761    -4.4665     0.1399 H       
  35 H35            2.0839    -3.8623    -0.3541 H       
  36 H36            2.4147     0.3072     2.2519 H       
  37 H37            1.6888     1.7237     1.4500 H       
  38 H38            2.4834     2.5156     3.5803 H       
  39 H39            0.7183     2.3410     3.7586 H       
  40 H40            2.8605     0.3606     4.6545 H       
  41 H41            4.0349     1.6782     4.7026 H       
  42 H42            6.0704     2.7725     5.5532 H       
  43 H43            6.9383     3.3302     8.6485 H       
  44 H44            6.7772     4.7422     7.5639 H       
  45 H45            4.5534     3.2509    10.2843 H       
  46 H46            3.5363     4.6344     9.7866 H       
  47 H47            2.0029     2.6451     8.3370 H       
  48 H48            1.0253    -1.1679     5.2866 H       
  49 H49           -1.3833    -0.5263     5.0751 H       
  50 H50           -0.8970     1.1518     4.4829 H       
  51 H51           -0.1741    -1.5746     3.1275 H       
@<TRIPOS>BOND
   1    1    2 1
   2    1   29 1
   3    1   30 1
   4    1   31 1
   5    2   11 ar
   6    2    3 ar
   7    3    4 ar
   8    3   32 1
   9    4    9 ar
  10    4    5 1
  11    5    6 2
  12    5    7 am
  13    7    8 1
  14    7   33 1
  15    8    9 1
  16    8   34 1
  17    8   35 1
  18    9   10 ar
  19   10   11 ar
  20   11   12 1
  21   12   28 1
  22   12   13 1
  23   13   14 1
  24   13   36 1
  25   13   37 1
  26   14   15 1
  27   14   38 1
  28   14   39 1
  29   15   16 1
  30   15   26 1
  31   15   40 1
  32   16   17 1
  33   17   25 ar
  34   17   18 ar
  35   18   19 ar
  36   18   41 1
  37   19   20 ar
  38   19   42 1
  39   20   24 ar
  40   20   21 1
  41   21   22 1
  42   21   43 1
  43   21   44 1
  44   22   23 1
  45   23   24 1
  46   23   45 1
  47   23   46 1
  48   24   25 ar
  49   25   47 1
  50   26   28 1
  51   26   27 1
  52   26   48 1
  53   27   28 1
  54   27   49 1
  55   27   50 1
  56   28   51 1

#	End of record

