#	Name: ASD03081142
#	Creating user name:	WinNT
#	Creation time:	15. 06. 2019 20:27

#	Modifying user name:	WinNT
#	Modification time:	15. 06. 2019 20:27

#	Program:	/corina/corina34_cracker 3.40 0067  02.08.2006

@<TRIPOS>MOLECULE
ASD03081142
  29   32    0    0    0
SMALL
NO_CHARGES


@<TRIPOS>ATOM
   1 O1            -0.0144     1.2085     0.0087 O.3     
   2 N2             0.0021    -0.0041     0.0020 N.2     
   3 C3             1.2348    -0.4422    -0.0121 C.2     
   4 N4             2.0458     0.6362    -0.0141 N.2     
   5 C5             1.2412     1.6828    -0.0008 C.2     
   6 C6             3.0154    -2.1957    -0.0376 C.ar    
   7 C7             1.6625    -1.8637    -0.0234 C.ar    
   8 C8             0.7147    -2.8901    -0.0194 C.ar    
   9 C9             1.1647    -4.1996    -0.0299 C.ar    
  10 C10            2.5249    -4.4471    -0.0438 C.ar    
  11 N11            3.3963    -3.4566    -0.0468 N.ar    
  12 C12            1.2220     7.6067     0.0274 C.2     
  13 N13            2.5000     7.1397     0.0134 N.pl3   
  14 C14            2.4351     5.7621     0.0081 C.ar    
  15 C15            1.0659     5.4392     0.0194 C.ar    
  16 N16            0.3824     6.6132     0.0308 N.2     
  17 C17            0.6753     4.1007     0.0173 C.ar    
  18 C18            1.6454     3.1039     0.0026 C.ar    
  19 C19            3.0041     3.4434    -0.0086 C.ar    
  20 C20            3.3904     4.7527    -0.0056 C.ar    
  21 H21            3.7586    -1.4122    -0.0453 H       
  22 H22           -0.3421    -2.6679    -0.0081 H       
  23 H23            0.4608    -5.0187    -0.0269 H       
  24 H24            2.8796    -5.4672    -0.0520 H       
  25 H25            0.9451     8.6505     0.0386 H       
  26 H26            3.3078     7.6768     0.0080 H       
  27 H27           -0.3727     3.8399     0.0262 H       
  28 H28            3.7515     2.6638    -0.0192 H       
  29 H29            4.4405     5.0047    -0.0143 H       
@<TRIPOS>BOND
   1    1    2 1
   2    1    5 1
   3    2    3 2
   4    3    4 1
   5    3    7 1
   6    4    5 2
   7    5   18 1
   8    6    7 ar
   9    6   11 ar
  10    6   21 1
  11    7    8 ar
  12    8    9 ar
  13    8   22 1
  14    9   10 ar
  15    9   23 1
  16   10   11 ar
  17   10   24 1
  18   12   13 1
  19   12   16 2
  20   12   25 1
  21   13   14 1
  22   13   26 1
  23   14   15 ar
  24   14   20 ar
  25   15   16 1
  26   15   17 ar
  27   17   18 ar
  28   17   27 1
  29   18   19 ar
  30   19   20 ar
  31   19   28 1
  32   20   29 1

#	End of record

