#	Name: ASD04570030
#	Creating user name:	WinNT
#	Creation time:	15. 06. 2019 20:49

#	Modifying user name:	WinNT
#	Modification time:	15. 06. 2019 20:49

#	Program:	/corina/corina34_cracker 3.40 0067  02.08.2006

@<TRIPOS>MOLECULE
ASD04570030
 329  329    0    0    0
SMALL
NO_CHARGES


@<TRIPOS>ATOM
   1 C1            -0.0187     1.5258     0.0104 C.3     
   2 C2             0.0021    -0.0041     0.0020 C.3     
   3 C3            -1.4333    -0.5336     0.0129 C.3     
   4 C4            -1.4126    -2.0635     0.0045 C.3     
   5 C5            -2.8479    -2.5931     0.0153 C.3     
   6 C6            -2.8272    -4.1229     0.0069 C.3     
   7 C7            -4.2626    -4.6525     0.0178 C.3     
   8 C8            -4.2418    -6.1823     0.0094 C.3     
   9 C9            -5.6772    -6.7119     0.0202 C.3     
  10 C10           -5.6565    -8.2417     0.0118 C.3     
  11 C11           -7.0918    -8.7713     0.0227 C.3     
  12 C12           -7.0711   -10.3012     0.0143 C.3     
  13 C13           -8.5065   -10.8307     0.0251 C.3     
  14 C14           -8.4857   -12.3606     0.0167 C.3     
  15 C15           -9.9211   -12.8902     0.0276 C.3     
  16 C16           -9.9007   -14.3970     0.0193 C.2     
  17 N17          -11.0586   -15.0867     0.0266 N.am    
  18 O18           -8.8423   -14.9890     0.0060 O.2     
  19 C19          -11.0387   -16.5515     0.0186 C.3     
  20 C20          -12.4525   -17.0732     0.0293 C.2     
  21 N21          -12.6808   -18.4014     0.0243 N.am    
  22 O22          -13.3849   -16.2977     0.0423 O.2     
  23 C23          -14.0552   -18.9085     0.0347 C.3     
  24 C24          -14.0866   -20.2872    -0.5729 C.2     
  25 N25          -15.2534   -20.9547    -0.6694 N.am    
  26 O26          -13.0618   -20.7962    -0.9750 O.2     
  27 C27          -15.2839   -22.2950    -1.2601 C.3     
  28 C28          -16.4732   -23.0518    -0.7273 C.2     
  29 O29          -17.2217   -22.5237     0.0675 O.2     
  30 N30          -16.7052   -24.3156    -1.1341 N.am    
  31 C31          -15.3930   -22.1794    -2.7818 C.3     
  32 C32          -14.1272   -21.5218    -3.3353 C.3     
  33 N33          -13.2290   -20.8561    -5.5418 N.am    
  34 C34          -14.2346   -21.4079    -4.8342 C.2     
  35 C35          -17.8613   -25.0514    -0.6162 C.3     
  36 C36          -17.4945   -25.7040     0.7181 C.3     
  37 C37          -18.2618   -26.1172    -1.6034 C.2     
  38 O38          -17.6425   -26.2493    -2.6378 O.2     
  39 N39          -19.3083   -26.9237    -1.3369 N.am    
  40 C40          -17.2085   -24.6169     1.7560 C.3     
  41 C41          -16.8417   -25.2695     3.0904 C.3     
  42 C42          -16.5556   -24.1824     4.1282 C.3     
  43 C43          -19.6976   -27.9598    -2.2966 C.3     
  44 C44          -18.8572   -29.2162    -2.0596 C.3     
  45 C45          -21.1568   -28.2899    -2.1150 C.2     
  46 C46          -17.3890   -28.9128    -2.3650 C.3     
  47 C47          -16.5486   -30.1691    -2.1280 C.3     
  48 C48          -15.0804   -29.8657    -2.4334 C.3     
  49 N49          -14.2735   -31.0720    -2.2059 N.3     
  50 O50          -21.8074   -27.7161    -1.2674 O.2     
  51 N51          -21.7387   -29.2227    -2.8945 N.am    
  52 C52          -23.1572   -29.5436    -2.7181 C.3     
  53 C53          -23.7199   -30.1039    -4.0259 C.3     
  54 C54          -23.3101   -30.5863    -1.6089 C.3     
  55 C55          -23.6814   -29.0190    -5.1039 C.3     
  56 C56          -24.1267   -29.6133    -6.4417 C.3     
  57 C57          -14.5634   -18.9748     1.4763 C.3     
  58 C58          -14.6484   -17.5812     2.0436 C.ar    
  59 C59          -15.8152   -16.8516     1.9099 C.ar    
  60 C60          -15.8955   -15.5739     2.4291 C.ar    
  61 C61          -14.8042   -15.0231     3.0850 C.ar    
  62 C62          -13.6346   -15.7572     3.2178 C.ar    
  63 C63          -13.5612   -17.0366     2.7018 C.ar    
  64 O64          -14.8806   -13.7662     3.5962 O.3     
  65 O65          -15.2259   -21.8128    -5.4036 O.2     
  66 N66          -16.2035   -24.8090     5.4094 N.3     
  67 C67          -24.6237   -27.8785    -4.7136 C.3     
  68 H68            1.0039     1.9031     0.0027 H       
  69 H69           -0.5459     1.8868    -0.8726 H       
  70 H70           -0.5289     1.8773     0.9072 H       
  71 H71            0.5123    -0.3556    -0.8948 H       
  72 H72            0.5293    -0.3651     0.8851 H       
  73 H73           -1.9435    -0.1821     0.9097 H       
  74 H74           -1.9605    -0.1726    -0.8702 H       
  75 H75           -0.9024    -2.4150    -0.8923 H       
  76 H76           -0.8854    -2.4246     0.8875 H       
  77 H77           -3.3581    -2.2415     0.9121 H       
  78 H78           -3.3751    -2.2320    -0.8677 H       
  79 H79           -2.3170    -4.4744    -0.8899 H       
  80 H80           -2.3000    -4.4840     0.8900 H       
  81 H81           -4.7728    -4.3010     0.9146 H       
  82 H82           -4.7898    -4.2914    -0.8653 H       
  83 H83           -3.7316    -6.5338    -0.8874 H       
  84 H84           -3.7146    -6.5434     0.8924 H       
  85 H85           -6.1874    -6.3604     0.9170 H       
  86 H86           -6.2044    -6.3508    -0.8628 H       
  87 H87           -5.1463    -8.5933    -0.8850 H       
  88 H88           -5.1293    -8.6028     0.8949 H       
  89 H89           -7.6020    -8.4198     0.9195 H       
  90 H90           -7.6190    -8.4102    -0.8604 H       
  91 H91           -6.5609   -10.6527    -0.8825 H       
  92 H92           -6.5439   -10.6622     0.8973 H       
  93 H93           -9.0167   -10.4792     0.9219 H       
  94 H94           -9.0337   -10.4697    -0.8579 H       
  95 H95           -7.9755   -12.7121    -0.8801 H       
  96 H96           -7.9586   -12.7217     0.8998 H       
  97 H97          -10.4313   -12.5386     0.9244 H       
  98 H98          -10.4483   -12.5291    -0.8555 H       
  99 H99          -11.9051   -14.6132     0.0373 H       
 100 H100         -10.5285   -16.9031    -0.8782 H       
 101 H101         -10.5115   -16.9126     0.9016 H       
 102 H102         -11.9351   -19.0217     0.0139 H       
 103 H103         -14.6930   -18.2414    -0.5451 H       
 104 H104         -16.0731   -20.5477    -0.3478 H       
 105 H105         -14.3687   -22.8273    -1.0008 H       
 106 H106         -16.1065   -24.7381    -1.7698 H       
 107 H107         -15.5050   -23.1735    -3.2146 H       
 108 H108         -16.2604   -21.5714    -3.0388 H       
 109 H109         -14.0152   -20.5278    -2.9025 H       
 110 H110         -13.2598   -22.1299    -3.0784 H       
 111 H111         -12.4362   -20.5323    -5.0864 H       
 112 H112         -13.2982   -20.7828    -6.5066 H       
 113 H113         -18.6932   -24.3629    -0.4674 H       
 114 H114         -18.3238   -26.3233     1.0598 H       
 115 H115         -16.6076   -26.3241     0.5877 H       
 116 H116         -19.8036   -26.8180    -0.5096 H       
 117 H117         -16.3791   -23.9975     1.4144 H       
 118 H118         -18.0953   -23.9967     1.8865 H       
 119 H119         -17.6710   -25.8888     3.4320 H       
 120 H120         -15.9548   -25.8896     2.9599 H       
 121 H121         -15.7263   -23.5630     3.7866 H       
 122 H122         -17.4425   -23.5622     4.2587 H       
 123 H123         -19.5306   -27.5969    -3.3107 H       
 124 H124         -18.9551   -29.5280    -1.0198 H       
 125 H125         -19.2065   -30.0156    -2.7131 H       
 126 H126         -17.2911   -28.6009    -3.4048 H       
 127 H127         -17.0397   -28.1134    -1.7115 H       
 128 H128         -16.6465   -30.4810    -1.0882 H       
 129 H129         -16.8979   -30.9685    -2.7815 H       
 130 H130         -14.9825   -29.5539    -3.4732 H       
 131 H131         -14.7311   -29.0663    -1.7799 H       
 132 H132         -14.6186   -31.8463    -2.7530 H       
 133 H133         -13.2991   -30.8973    -2.4009 H       
 134 H134         -21.2184   -29.6816    -3.5724 H       
 135 H135         -23.7029   -28.6403    -2.4453 H       
 136 H136         -23.1182   -30.9549    -4.3452 H       
 137 H137         -24.7498   -30.4251    -3.8702 H       
 138 H138         -22.9092   -30.1871    -0.6772 H       
 139 H139         -24.3655   -30.8250    -1.4776 H       
 140 H140         -22.7644   -31.4896    -1.8817 H       
 141 H141         -22.6655   -28.6351    -5.1970 H       
 142 H142         -25.1426   -29.9971    -6.3486 H       
 143 H143         -24.0993   -28.8403    -7.2097 H       
 144 H144         -23.4553   -30.4257    -6.7197 H       
 145 H145         -15.5517   -19.4345     1.4924 H       
 146 H146         -13.8759   -19.5703     2.0769 H       
 147 H147         -16.6644   -17.2807     1.3989 H       
 148 H148         -16.8070   -15.0043     2.3241 H       
 149 H149         -12.7837   -15.3306     3.7280 H       
 150 H150         -12.6509   -17.6086     2.8049 H       
 151 H151         -15.1966   -13.7316     4.5094 H       
 152 H152         -16.0098   -24.1112     6.1120 H       
 153 H153         -16.9299   -25.4387     5.7157 H       
 154 H154         -24.3065   -27.4552    -3.7606 H       
 155 H155         -24.5963   -27.1056    -5.4817 H       
 156 H156         -25.6397   -28.2624    -4.6205 H       
 157 C157          20.2872    34.5115    30.9355 C.3     
 158 C158          20.5971    33.1310    30.4166 C.2     
 159 N159          21.7778    32.8869    29.8142 N.am    
 160 C160          22.0790    31.5448    29.3098 C.3     
 161 C161          21.0550    31.1556    28.2749 C.2     
 162 N162          21.3285    30.1749    27.3918 N.am    
 163 C163          20.3330    29.7965    26.3858 C.3     
 164 C164          20.5695    28.3715    25.9562 C.2     
 165 N165          19.7693    27.8048    25.0316 N.am    
 166 O166          21.4799    27.7347    26.4425 O.2     
 167 C167          19.9991    26.4195    24.6141 C.3     
 168 C168          18.7118    25.8302    24.0978 C.2     
 169 C169          21.0542    26.3891    23.5065 C.3     
 170 C170          22.3944    26.8711    24.0655 C.3     
 171 C171          23.4496    26.8407    22.9579 C.3     
 172 C172          24.7898    27.3227    23.5169 C.3     
 173 N173          18.6829    24.5575    23.6554 N.am    
 174 O174          17.7017    26.5014    24.0804 O.2     
 175 C175          17.4314    23.9846    23.1535 C.3     
 176 C176          17.4702    22.4854    23.3017 C.2     
 177 N177          16.3208    21.7839    23.3585 N.am    
 178 O178          18.5357    21.9102    23.3697 O.2     
 179 C179          16.3582    20.3211    23.4284 C.3     
 180 C180          15.3980    19.7453    22.4196 C.2     
 181 O181          14.7466    20.4841    21.7120 O.2     
 182 N182          15.2631    18.4093    22.3039 N.am    
 183 C183          14.3297    17.8496    21.3232 C.3     
 184 C184          12.9265    17.7912    21.9303 C.3     
 185 C185          14.7719    16.4593    20.9455 C.2     
 186 O186          15.7685    15.9829    21.4461 O.2     
 187 N187          14.0597    15.7453    20.0513 N.am    
 188 C188          14.4895    14.3938    19.6841 C.3     
 189 C189          13.9419    13.3905    20.7011 C.3     
 190 C190          13.9654    14.0553    18.3123 C.2     
 191 O191          13.2985    14.8635    17.7015 O.2     
 192 N192          14.2378    12.8546    17.7642 N.am    
 193 C193          13.7283    12.5255    16.4306 C.3     
 194 C194          12.3022    11.9841    16.5488 C.3     
 195 C195          14.6116    11.4805    15.7991 C.2     
 196 O196          15.5722    11.0528    16.4035 O.2     
 197 N197          14.3342    11.0214    14.5627 N.am    
 198 C198          11.3801    13.0863    17.0738 C.3     
 199 C199           9.9540    12.5449    17.1920 C.3     
 200 N200           9.0710    13.6003    17.6947 N.pl3   
 201 C201           7.7333    13.3454    17.8836 C.2     
 202 C202          17.2607    24.3470    21.6769 C.3     
 203 C203          15.8897    23.8729    21.1906 C.3     
 204 O204          17.3580    25.7640    21.5198 O.3     
 205 C205          15.9553    19.8671    24.8329 C.3     
 206 C206          16.9429    20.4036    25.8368 C.2     
 207 O207          16.7636    20.1687    27.1461 O.3     
 208 O208          17.8962    21.0451    25.4631 O.2     
 209 C209          12.4275    19.2124    22.1988 C.3     
 210 C210          11.0243    19.1540    22.8058 C.3     
 211 C211          10.5252    20.5752    23.0743 C.3     
 212 N212           9.1779    20.5191    23.6572 N.3     
 213 C213          14.5613    13.6532    22.0496 C.ar    
 214 C214          13.9521    14.5278    22.9303 C.ar    
 215 C215          15.7349    13.0150    22.4061 C.ar    
 216 C216          16.3045    13.2538    23.6418 C.ar    
 217 C217          15.6980    14.1349    24.5253 C.ar    
 218 C218          14.5179    14.7703    24.1670 C.ar    
 219 N219           7.2242    12.1000    17.6009 N.pl3   
 220 N220           6.9477    14.2844    18.3309 N.2     
 221 C221          20.4560    30.7217    25.1734 C.3     
 222 O222          21.7237    30.5187    24.5459 O.3     
 223 O223          19.9848    31.7249    28.2368 O.2     
 224 C224          22.0405    30.5445    30.4668 C.3     
 225 C225          23.1621    30.8661    31.4565 C.3     
 226 C226          23.1236    29.8657    32.6136 C.3     
 227 N227          24.1975    30.1737    33.5613 N.pl3   
 228 C228          24.3610    29.4040    34.6887 C.2     
 229 N229          23.5167    28.3453    34.9267 N.pl3   
 230 N230          25.3165    29.6779    35.5318 N.2     
 231 O231          19.7840    32.2397    30.5410 O.2     
 232 C232          15.1929    10.0055    13.9488 C.3     
 233 C233          16.3650    10.6761    13.2799 C.2     
 234 C234          14.3914     9.2217    12.9076 C.3     
 235 C235          13.2286     8.5028    13.5945 C.3     
 236 N236          17.4456     9.9514    12.9285 N.am    
 237 O237          16.3359    11.8681    13.0577 O.2     
 238 C238          12.4872     7.6394    12.5719 C.3     
 239 O239          16.2561    14.3712    25.7416 O.3     
 240 C240          13.8436    10.1862    11.8538 C.3     
 241 H241          21.1300    35.1729    30.7346 H       
 242 H242          19.3971    34.8956    30.4373 H       
 243 H243          20.1103    34.4645    32.0101 H       
 244 H244          22.4280    33.5997    29.7148 H       
 245 H245          23.0713    31.5406    28.8586 H       
 246 H246          22.1845    29.7196    27.4223 H       
 247 H247          19.3337    29.8866    26.8117 H       
 248 H248          19.0411    28.3141    24.6427 H       
 249 H249          20.3496    25.8367    25.4659 H       
 250 H250          21.1611    25.3702    23.1343 H       
 251 H251          20.7443    27.0430    22.6914 H       
 252 H252          22.2876    27.8900    24.4376 H       
 253 H253          22.7044    26.2172    24.8806 H       
 254 H254          23.5564    25.8218    22.5857 H       
 255 H255          23.1396    27.4946    22.1428 H       
 256 H256          25.5414    27.3010    22.7278 H       
 257 H257          24.6829    28.3416    23.8890 H       
 258 H258          25.0997    26.6688    24.3320 H       
 259 H259          19.4907    24.0207    23.6694 H       
 260 H260          16.5938    24.3847    23.7250 H       
 261 H261          15.4688    22.2476    23.3532 H       
 262 H262          17.3675    19.9725    23.2095 H       
 263 H263          15.7841    17.8184    22.8698 H       
 264 H264          14.3151    18.4803    20.4343 H       
 265 H265          12.2502    17.2939    21.2349 H       
 266 H266          12.9586    17.2344    22.8668 H       
 267 H267          13.2626    16.1263    19.6509 H       
 268 H268          15.5785    14.3478    19.6785 H       
 269 H269          12.8595    13.4983    20.7713 H       
 270 H270          14.1861    12.3778    20.3802 H       
 271 H271          14.7712    12.2082    18.2527 H       
 272 H272          13.7263    13.4223    15.8110 H       
 273 H273          11.9555    11.6566    15.5687 H       
 274 H274          12.2898    11.1406    17.2391 H       
 275 H275          13.5660    11.3635    14.0794 H       
 276 H276          11.7267    13.4139    18.0539 H       
 277 H277          11.3924    13.9298    16.3835 H       
 278 H278           9.6073    12.2174    16.2118 H       
 279 H279           9.9416    11.7014    17.8823 H       
 280 H280           9.4302    14.4790    17.8942 H       
 281 H281          18.0417    23.8621    21.0912 H       
 282 H282          15.1103    24.3267    21.8026 H       
 283 H283          15.7518    24.1666    20.1500 H       
 284 H284          15.8305    22.7876    21.2728 H       
 285 H285          18.2031    26.1347    21.8088 H       
 286 H286          14.9596    20.2449    25.0652 H       
 287 H287          15.9496    18.7780    24.8750 H       
 288 H288          17.4235    20.5330    27.7519 H       
 289 H289          13.1037    19.7096    22.8941 H       
 290 H290          12.3953    19.7692    21.2623 H       
 291 H291          10.3480    18.6568    22.1105 H       
 292 H292          11.0564    18.5972    23.7423 H       
 293 H293          11.2015    21.0725    23.7696 H       
 294 H294          10.4931    21.1320    22.1378 H       
 295 H295           9.1687    19.9538    24.4928 H       
 296 H296           8.8259    21.4461    23.8438 H       
 297 H297          13.0333    15.0219    22.6511 H       
 298 H298          16.2065    12.3289    21.7182 H       
 299 H299          17.2210    12.7548    23.9200 H       
 300 H300          14.0438    15.4567    24.8530 H       
 301 H301           7.8088    11.4012    17.2680 H       
 302 H302           6.2804    11.9201    17.7342 H       
 303 H303           6.0039    14.1045    18.4642 H       
 304 H304          19.6593    30.4985    24.4638 H       
 305 H305          20.3733    31.7590    25.4981 H       
 306 H306          21.8708    31.0738    23.7679 H       
 307 H307          21.0780    30.6123    30.9738 H       
 308 H308          22.1766    29.5350    30.0790 H       
 309 H309          24.1246    30.7983    30.9495 H       
 310 H310          23.0260    31.8756    31.8444 H       
 311 H311          22.1611    29.9335    33.1206 H       
 312 H312          23.2596    28.8562    32.2258 H       
 313 H313          24.7932    30.9206    33.3933 H       
 314 H314          22.8057    28.1415    34.2992 H       
 315 H315          23.6321    27.8023    35.7221 H       
 316 H316          25.4319    29.1349    36.3273 H       
 317 H317          15.5551     9.3230    14.7177 H       
 318 H318          15.0391     8.4883    12.4272 H       
 319 H319          13.6141     7.8694    14.3934 H       
 320 H320          12.5428     9.2392    14.0136 H       
 321 H321          17.4397     8.9876    13.0380 H       
 322 H322          18.2293    10.3935    12.5662 H       
 323 H323          12.1017     8.2729    11.7730 H       
 324 H324          13.1730     6.9031    12.1528 H       
 325 H325          11.6588     7.1272    13.0613 H       
 326 H326          16.8848    15.1059    25.7499 H       
 327 H327          13.1959    10.9196    12.3342 H       
 328 H328          14.6720    10.6984    11.3644 H       
 329 H329          13.2726     9.6279    11.1120 H       
@<TRIPOS>BOND
   1    1    2 1
   2    1   68 1
   3    1   69 1
   4    1   70 1
   5    2    3 1
   6    2   71 1
   7    2   72 1
   8    3    4 1
   9    3   73 1
  10    3   74 1
  11    4    5 1
  12    4   75 1
  13    4   76 1
  14    5    6 1
  15    5   77 1
  16    5   78 1
  17    6    7 1
  18    6   79 1
  19    6   80 1
  20    7    8 1
  21    7   81 1
  22    7   82 1
  23    8    9 1
  24    8   83 1
  25    8   84 1
  26    9   10 1
  27    9   85 1
  28    9   86 1
  29   10   11 1
  30   10   87 1
  31   10   88 1
  32   11   12 1
  33   11   89 1
  34   11   90 1
  35   12   13 1
  36   12   91 1
  37   12   92 1
  38   13   14 1
  39   13   93 1
  40   13   94 1
  41   14   15 1
  42   14   95 1
  43   14   96 1
  44   15   16 1
  45   15   97 1
  46   15   98 1
  47   16   17 am
  48   16   18 2
  49   17   19 1
  50   17   99 1
  51   19   20 1
  52   19  100 1
  53   19  101 1
  54   20   21 am
  55   20   22 2
  56   21   23 1
  57   21  102 1
  58   23   24 1
  59   23   57 1
  60   23  103 1
  61   24   25 am
  62   24   26 2
  63   25   27 1
  64   25  104 1
  65   27   28 1
  66   27   31 1
  67   27  105 1
  68   28   29 2
  69   28   30 am
  70   30   35 1
  71   30  106 1
  72   31   32 1
  73   31  107 1
  74   31  108 1
  75   32   34 1
  76   32  109 1
  77   32  110 1
  78   33   34 am
  79   33  111 1
  80   33  112 1
  81   34   65 2
  82   35   36 1
  83   35   37 1
  84   35  113 1
  85   36   40 1
  86   36  114 1
  87   36  115 1
  88   37   38 2
  89   37   39 am
  90   39   43 1
  91   39  116 1
  92   40   41 1
  93   40  117 1
  94   40  118 1
  95   41   42 1
  96   41  119 1
  97   41  120 1
  98   42   66 1
  99   42  121 1
 100   42  122 1
 101   43   44 1
 102   43   45 1
 103   43  123 1
 104   44   46 1
 105   44  124 1
 106   44  125 1
 107   45   50 2
 108   45   51 am
 109   46   47 1
 110   46  126 1
 111   46  127 1
 112   47   48 1
 113   47  128 1
 114   47  129 1
 115   48   49 1
 116   48  130 1
 117   48  131 1
 118   49  132 1
 119   49  133 1
 120   51   52 1
 121   51  134 1
 122   52   53 1
 123   52   54 1
 124   52  135 1
 125   53   55 1
 126   53  136 1
 127   53  137 1
 128   54  138 1
 129   54  139 1
 130   54  140 1
 131   55   56 1
 132   55   67 1
 133   55  141 1
 134   56  142 1
 135   56  143 1
 136   56  144 1
 137   57   58 1
 138   57  145 1
 139   57  146 1
 140   58   59 ar
 141   58   63 ar
 142   59   60 ar
 143   59  147 1
 144   60   61 ar
 145   60  148 1
 146   61   62 ar
 147   61   64 1
 148   62   63 ar
 149   62  149 1
 150   63  150 1
 151   64  151 1
 152   66  152 1
 153   66  153 1
 154   67  154 1
 155   67  155 1
 156   67  156 1
 157  157  158 1
 158  157  241 1
 159  157  242 1
 160  157  243 1
 161  158  159 am
 162  158  231 2
 163  159  160 1
 164  159  244 1
 165  160  161 1
 166  160  224 1
 167  160  245 1
 168  161  162 am
 169  161  223 2
 170  162  163 1
 171  162  246 1
 172  163  164 1
 173  163  221 1
 174  163  247 1
 175  164  165 am
 176  164  166 2
 177  165  167 1
 178  165  248 1
 179  167  168 1
 180  167  169 1
 181  167  249 1
 182  168  173 am
 183  168  174 2
 184  169  170 1
 185  169  250 1
 186  169  251 1
 187  170  171 1
 188  170  252 1
 189  170  253 1
 190  171  172 1
 191  171  254 1
 192  171  255 1
 193  172  256 1
 194  172  257 1
 195  172  258 1
 196  173  175 1
 197  173  259 1
 198  175  176 1
 199  175  202 1
 200  175  260 1
 201  176  177 am
 202  176  178 2
 203  177  179 1
 204  177  261 1
 205  179  180 1
 206  179  205 1
 207  179  262 1
 208  180  181 2
 209  180  182 am
 210  182  183 1
 211  182  263 1
 212  183  184 1
 213  183  185 1
 214  183  264 1
 215  184  209 1
 216  184  265 1
 217  184  266 1
 218  185  186 2
 219  185  187 am
 220  187  188 1
 221  187  267 1
 222  188  189 1
 223  188  190 1
 224  188  268 1
 225  189  213 1
 226  189  269 1
 227  189  270 1
 228  190  191 2
 229  190  192 am
 230  192  193 1
 231  192  271 1
 232  193  194 1
 233  193  195 1
 234  193  272 1
 235  194  198 1
 236  194  273 1
 237  194  274 1
 238  195  196 2
 239  195  197 am
 240  197  232 1
 241  197  275 1
 242  198  199 1
 243  198  276 1
 244  198  277 1
 245  199  200 1
 246  199  278 1
 247  199  279 1
 248  200  201 1
 249  200  280 1
 250  201  219 1
 251  201  220 2
 252  202  203 1
 253  202  204 1
 254  202  281 1
 255  203  282 1
 256  203  283 1
 257  203  284 1
 258  204  285 1
 259  205  206 1
 260  205  286 1
 261  205  287 1
 262  206  207 1
 263  206  208 2
 264  207  288 1
 265  209  210 1
 266  209  289 1
 267  209  290 1
 268  210  211 1
 269  210  291 1
 270  210  292 1
 271  211  212 1
 272  211  293 1
 273  211  294 1
 274  212  295 1
 275  212  296 1
 276  213  214 ar
 277  213  215 ar
 278  214  218 ar
 279  214  297 1
 280  215  216 ar
 281  215  298 1
 282  216  217 ar
 283  216  299 1
 284  217  218 ar
 285  217  239 1
 286  218  300 1
 287  219  301 1
 288  219  302 1
 289  220  303 1
 290  221  222 1
 291  221  304 1
 292  221  305 1
 293  222  306 1
 294  224  225 1
 295  224  307 1
 296  224  308 1
 297  225  226 1
 298  225  309 1
 299  225  310 1
 300  226  227 1
 301  226  311 1
 302  226  312 1
 303  227  228 1
 304  227  313 1
 305  228  229 1
 306  228  230 2
 307  229  314 1
 308  229  315 1
 309  230  316 1
 310  232  233 1
 311  232  234 1
 312  232  317 1
 313  233  236 am
 314  233  237 2
 315  234  235 1
 316  234  240 1
 317  234  318 1
 318  235  238 1
 319  235  319 1
 320  235  320 1
 321  236  321 1
 322  236  322 1
 323  238  323 1
 324  238  324 1
 325  238  325 1
 326  239  326 1
 327  240  327 1
 328  240  328 1
 329  240  329 1

#	End of record

