#	Name: ASD03430797
#	Creating user name:	WinNT
#	Creation time:	15. 06. 2019 20:41

#	Modifying user name:	WinNT
#	Modification time:	15. 06. 2019 20:41

#	Program:	/corina/corina34_cracker 3.40 0067  02.08.2006

@<TRIPOS>MOLECULE
ASD03430797
  37   42    0    0    0
SMALL
NO_CHARGES


@<TRIPOS>ATOM
   1 O1            -0.0173     1.4276     0.0099 O.3     
   2 C2             0.0021    -0.0041     0.0020 C.3     
   3 C3             1.0281    -0.4758     1.0411 C.3     
   4 O4             2.3084     0.0539     0.6808 O.3     
   5 C5             2.3525     1.3718     0.3416 C.ar    
   6 C6             1.1909     2.0554     0.0017 C.ar    
   7 C7             3.5700     2.0317     0.3392 C.ar    
   8 C8             3.6426     3.3775    -0.0059 C.ar    
   9 C9             2.4753     4.0470    -0.3601 C.ar    
  10 C10            1.2610     3.3937    -0.3531 C.ar    
  11 O11            4.7219     4.2102    -0.0465 O.3     
  12 C12            2.8764     5.4566    -0.7036 C.3     
  13 C13            4.4015     5.3656    -0.8448 C.3     
  14 N14            1.5435     7.0569    -1.6426 N.am    
  15 C15            2.2266     5.9412    -1.9680 C.2     
  16 C16            2.4661     6.4375     0.3544 C.ar    
  17 C17            2.7284     6.5431     1.7144 C.ar    
  18 C18            2.1867     7.5996     2.4565 C.ar    
  19 C19            1.3768     8.5413     1.7899 C.ar    
  20 C20            1.1273     8.4251     0.4590 C.ar    
  21 C21            1.6658     7.3714    -0.2855 C.ar    
  22 S22            3.6811     5.5445     2.8084 S.3     
  23 C23            3.2993     6.5697     4.1178 C.2     
  24 N24            2.5473     7.5375     3.7525 N.2     
  25 O25            2.3022     5.4300    -3.0653 O.2     
  26 H26           -0.9854    -0.3866     0.2604 H       
  27 H27            0.2887    -0.3625    -0.9867 H       
  28 H28            0.7447    -0.1120     2.0288 H       
  29 H29            1.0698    -1.5649     1.0482 H       
  30 H30            4.4697     1.4978     0.6075 H       
  31 H31            0.3617     3.9263    -0.6250 H       
  32 H32            4.8812     6.2583    -0.4434 H       
  33 H33            4.6849     5.2075    -1.8854 H       
  34 H34            1.0278     7.5804    -2.2757 H       
  35 H35            0.9493     9.3643     2.3433 H       
  36 H36            0.5037     9.1582    -0.0311 H       
  37 H37            3.6488     6.4200     5.1287 H       
@<TRIPOS>BOND
   1    1    2 1
   2    1    6 1
   3    2    3 1
   4    2   26 1
   5    2   27 1
   6    3    4 1
   7    3   28 1
   8    3   29 1
   9    4    5 1
  10    5    6 ar
  11    5    7 ar
  12    6   10 ar
  13    7    8 ar
  14    7   30 1
  15    8    9 ar
  16    8   11 1
  17    9   10 ar
  18    9   12 1
  19   10   31 1
  20   11   13 1
  21   12   13 1
  22   12   15 1
  23   12   16 1
  24   13   32 1
  25   13   33 1
  26   14   15 am
  27   14   21 1
  28   14   34 1
  29   15   25 2
  30   16   17 ar
  31   16   21 ar
  32   17   18 ar
  33   17   22 1
  34   18   19 ar
  35   18   24 1
  36   19   20 ar
  37   19   35 1
  38   20   21 ar
  39   20   36 1
  40   22   23 1
  41   23   24 2
  42   23   37 1

#	End of record

