#	Name: ASD04590771
#	Creating user name:	WinNT
#	Creation time:	15. 06. 2019 20:51

#	Modifying user name:	WinNT
#	Modification time:	15. 06. 2019 20:51

#	Program:	/corina/corina34_cracker 3.40 0067  02.08.2006

@<TRIPOS>MOLECULE
ASD04590771
  60   63    0    0    0
SMALL
NO_CHARGES


@<TRIPOS>ATOM
   1 N1            -3.5432    -0.6977     0.0199 N.ar    
   2 C2            -2.4052    -0.0191     0.0230 C.ar    
   3 C3            -2.4035     1.3726     0.0394 C.ar    
   4 C4            -3.6090     2.0484     0.0526 C.ar    
   5 C5            -4.7930     1.2983     0.0488 C.ar    
   6 C6            -4.7131    -0.0911     0.0321 C.ar    
   7 C7            -6.9773     1.8394     1.1522 C.ar    
   8 C8            -6.1119     1.9754     0.0630 C.ar    
   9 C9            -8.1952     2.4870     1.1247 C.ar    
  10 N10           -8.5467     3.2257     0.0897 N.ar    
  11 C11           -7.7602     3.3812    -0.9585 C.ar    
  12 C12           -6.5243     2.7687    -1.0136 C.ar    
  13 N13           -1.1972    -0.7061     0.0102 N.pl3   
  14 C14           -1.1851    -2.0969     0.1078 C.ar    
  15 N15           -2.3184    -2.7479     0.3148 N.ar    
  16 C16           -2.3544    -4.0634     0.4134 C.ar    
  17 C17           -1.1942    -4.8147     0.3024 C.ar    
  18 C18            0.0190    -4.1635     0.0840 C.ar    
  19 C19            0.0171    -2.7845    -0.0191 C.ar    
  20 N20           -1.2405    -6.2099     0.4086 N.3     
  21 C21           -2.6151    -6.6751     0.6370 C.3     
  22 C22           -2.6512    -8.2055     0.5666 C.3     
  23 N23           -1.6502    -8.7400     1.5023 N.am    
  24 C24           -0.2769    -8.2190     1.4246 C.3     
  25 C25           -0.3343    -6.6881     1.4612 C.3     
  26 Cl26          -5.4972     2.9797    -2.3971 Cl      
  27 Cl27          -3.6556     3.7836     0.0738 Cl      
  28 O28           -1.0519   -10.1587     3.2553 O.3     
  29 C29           -1.4810   -11.1717     4.2030 C.3     
  30 C30           -2.0078   -12.3906     3.4430 C.3     
  31 C31           -0.2955   -11.5881     5.0759 C.3     
  32 C32           -2.5918   -10.6036     5.0886 C.3     
  33 C33           -1.9825    -9.6819     2.4072 C.2     
  34 O34           -3.1221   -10.1007     2.4576 O.2     
  35 H35           -1.4713     1.9180     0.0422 H       
  36 H36           -5.6195    -0.6784     0.0287 H       
  37 H37           -6.6985     1.2325     2.0010 H       
  38 H38           -8.8702     2.3876     1.9618 H       
  39 H39           -8.0881     3.9949    -1.7844 H       
  40 H40           -0.3625    -0.2180    -0.0667 H       
  41 H41           -3.2981    -4.5604     0.5829 H       
  42 H42            0.9383    -4.7232    -0.0061 H       
  43 H43            0.9387    -2.2476    -0.1885 H       
  44 H44           -2.9509    -6.3483     1.6211 H       
  45 H45           -3.2713    -6.2602    -0.1280 H       
  46 H46           -3.6422    -8.5617     0.8478 H       
  47 H47           -2.4159    -8.5311    -0.4467 H       
  48 H48            0.3018    -8.5841     2.2730 H       
  49 H49            0.1866    -8.5459     0.4938 H       
  50 H50            0.6635    -6.2826     1.2939 H       
  51 H51           -0.7019    -6.3611     2.4338 H       
  52 H52           -1.2164   -12.7953     2.8121 H       
  53 H53           -2.3299   -13.1510     4.1545 H       
  54 H54           -2.8524   -12.0939     2.8211 H       
  55 H55            0.0799   -10.7197     5.6173 H       
  56 H56           -0.6175   -12.3485     5.7874 H       
  57 H57            0.4959   -11.9928     4.4450 H       
  58 H58           -3.4363   -10.3069     4.4667 H       
  59 H59           -2.9138   -11.3640     5.8001 H       
  60 H60           -2.2164    -9.7352     5.6300 H       
@<TRIPOS>BOND
   1    1    2 ar
   2    1    6 ar
   3    2    3 ar
   4    2   13 1
   5    3    4 ar
   6    3   35 1
   7    4    5 ar
   8    4   27 1
   9    5    6 ar
  10    5    8 1
  11    6   36 1
  12    7    8 ar
  13    7    9 ar
  14    7   37 1
  15    8   12 ar
  16    9   10 ar
  17    9   38 1
  18   10   11 ar
  19   11   12 ar
  20   11   39 1
  21   12   26 1
  22   13   14 1
  23   13   40 1
  24   14   15 ar
  25   14   19 ar
  26   15   16 ar
  27   16   17 ar
  28   16   41 1
  29   17   18 ar
  30   17   20 1
  31   18   19 ar
  32   18   42 1
  33   19   43 1
  34   20   21 1
  35   20   25 1
  36   21   22 1
  37   21   44 1
  38   21   45 1
  39   22   23 1
  40   22   46 1
  41   22   47 1
  42   23   24 1
  43   23   33 am
  44   24   25 1
  45   24   48 1
  46   24   49 1
  47   25   50 1
  48   25   51 1
  49   28   29 1
  50   28   33 1
  51   29   30 1
  52   29   31 1
  53   29   32 1
  54   30   52 1
  55   30   53 1
  56   30   54 1
  57   31   55 1
  58   31   56 1
  59   31   57 1
  60   32   58 1
  61   32   59 1
  62   32   60 1
  63   33   34 2

#	End of record

