#	Name: ASD01680063
#	Creating user name:	WinNT
#	Creation time:	15. 06. 2019 19:22

#	Modifying user name:	WinNT
#	Modification time:	15. 06. 2019 19:22

#	Program:	/corina/corina34_cracker 3.40 0067  02.08.2006

@<TRIPOS>MOLECULE
ASD01680063
  89   91    0    0    0
SMALL
NO_CHARGES


@<TRIPOS>ATOM
   1 C1            -0.2639     1.5759     0.0894 C.2     
   2 C2            -0.1535     0.0737     0.0418 C.3     
   3 C3            -0.8960    -0.4536    -1.1876 C.3     
   4 O4             0.7341     2.2563     0.0592 O.2     
   5 O5            -1.4713     2.1582     0.1597 O.3     
   6 N6             1.2581    -0.3099    -0.0385 N.am    
   7 C7             1.9915    -0.4207     1.0868 C.2     
   8 C8             3.4160    -0.8078     1.0057 C.ar    
   9 C9             3.7804    -2.1543     1.0554 C.ar    
  10 C10            5.1115    -2.5087     0.9787 C.ar    
  11 C11            6.0843    -1.5329     0.8533 C.ar    
  12 C12            5.7298    -0.1964     0.8035 C.ar    
  13 C13            4.4020     0.1713     0.8733 C.ar    
  14 O14            1.4816    -0.2024     2.1684 O.2     
  15 C15            4.0172     1.6271     0.8127 C.3     
  16 C16            7.5364    -1.9274     0.7711 C.3     
  17 C17            2.7223    -3.2184     1.1929 C.3     
  18 N18           -0.6891    -1.8996    -1.3001 N.am    
  19 C19           -1.2530    -2.5840    -2.3150 C.2     
  20 O20           -1.9318    -2.0030    -3.1350 O.2     
  21 C21           -1.0402    -4.0714    -2.4307 C.3     
  22 O22           -1.7337    -4.5639    -3.5790 O.3     
  23 N23           -3.8823    -6.6537    -4.0074 N.am    
  24 C24           -2.7394    -6.7478    -3.0810 C.3     
  25 C25           -1.5962    -5.9718    -3.7815 C.3     
  26 C26           -1.8320    -6.3453    -5.2689 C.3     
  27 C27           -3.3702    -6.4231    -5.3661 C.3     
  28 C28           -3.7760    -7.5821    -6.2788 C.3     
  29 N29           -3.3731    -7.2837    -7.6554 N.pl3   
  30 C30           -3.5441    -8.2378    -8.6520 C.ar    
  31 C31           -4.0976    -9.4717    -8.3350 C.ar    
  32 C32           -4.2623   -10.4151    -9.3413 C.ar    
  33 C33           -3.8625   -10.0813   -10.6353 C.ar    
  34 C34           -3.3211    -8.8365   -10.8729 C.ar    
  35 N35           -3.1824    -7.9592    -9.8957 N.ar    
  36 O36           -4.7990   -11.6325    -9.0718 O.3     
  37 C37           -4.9312   -12.5402   -10.1675 C.3     
  38 C38           -5.1813    -6.7664    -3.6662 C.2     
  39 O39           -6.0449    -6.5807    -4.4972 O.2     
  40 C40           -5.5607    -7.1230    -2.2520 C.3     
  41 C41           -7.0848    -7.1858    -2.1332 C.3     
  42 C42           -7.6276    -8.2488    -3.0904 C.3     
  43 C43           -7.4700    -7.5479    -0.6975 C.3     
  44 C44           -7.6809    -5.8234    -2.4930 C.3     
  45 H45           -0.5948    -0.3518     0.9431 H       
  46 H46           -1.9612    -0.2459    -1.0855 H       
  47 H47           -0.5139     0.0388    -2.0818 H       
  48 H48           -1.4916     3.1245     0.1880 H       
  49 H49            1.6650    -0.4841    -0.9017 H       
  50 H50            5.3948    -3.5502     1.0170 H       
  51 H51            6.4940     0.5604     0.7055 H       
  52 H52            3.9997     2.0406     1.8210 H       
  53 H53            4.7449     2.1703     0.2098 H       
  54 H54            3.0288     1.7232     0.3633 H       
  55 H55            7.8128    -2.0806    -0.2721 H       
  56 H56            8.1526    -1.1360     1.1978 H       
  57 H57            7.6941    -2.8510     1.3281 H       
  58 H58            2.3924    -3.5329     0.2028 H       
  59 H59            3.1349    -4.0742     1.7273 H       
  60 H60            1.8742    -2.8178     1.7482 H       
  61 H61           -0.1462    -2.3643    -0.6442 H       
  62 H62            0.0250    -4.2792    -2.5328 H       
  63 H63           -1.4223    -4.5639    -1.5365 H       
  64 H64           -2.9851    -6.2817    -2.1268 H       
  65 H65           -2.4555    -7.7898    -2.9333 H       
  66 H66           -0.6213    -6.3201    -3.4404 H       
  67 H67           -1.4427    -5.5692    -5.9278 H       
  68 H68           -1.3817    -7.3107    -5.5001 H       
  69 H69           -3.7648    -5.4852    -5.7567 H       
  70 H70           -3.2838    -8.4960    -5.9462 H       
  71 H71           -4.8569    -7.7158    -6.2375 H       
  72 H72           -2.9870    -6.4205    -7.8714 H       
  73 H73           -4.3952    -9.6945    -7.3210 H       
  74 H74           -3.9756   -10.7906   -11.4418 H       
  75 H75           -3.0100    -8.5733   -11.8731 H       
  76 H76           -5.5739   -12.0990   -10.9294 H       
  77 H77           -3.9482   -12.7413   -10.5934 H       
  78 H78           -5.3724   -13.4727    -9.8156 H       
  79 H79           -5.1360    -8.0936    -1.9956 H       
  80 H80           -5.1740    -6.3657    -1.5700 H       
  81 H81           -7.2029    -9.2194    -2.8341 H       
  82 H82           -8.7134    -8.2936    -3.0058 H       
  83 H83           -7.3532    -7.9909    -4.1133 H       
  84 H84           -7.0833    -6.7906    -0.0155 H       
  85 H85           -8.5558    -7.5926    -0.6128 H       
  86 H86           -7.0453    -8.5185    -0.4411 H       
  87 H87           -7.4065    -5.5654    -3.5159 H       
  88 H88           -8.7667    -5.8681    -2.4084 H       
  89 H89           -7.2942    -5.0661    -1.8111 H       
@<TRIPOS>BOND
   1    1    2 1
   2    1    4 2
   3    1    5 1
   4    2    3 1
   5    2    6 1
   6    2   45 1
   7    3   18 1
   8    3   46 1
   9    3   47 1
  10    5   48 1
  11    6    7 am
  12    6   49 1
  13    7    8 1
  14    7   14 2
  15    8    9 ar
  16    8   13 ar
  17    9   10 ar
  18    9   17 1
  19   10   11 ar
  20   10   50 1
  21   11   12 ar
  22   11   16 1
  23   12   13 ar
  24   12   51 1
  25   13   15 1
  26   15   52 1
  27   15   53 1
  28   15   54 1
  29   16   55 1
  30   16   56 1
  31   16   57 1
  32   17   58 1
  33   17   59 1
  34   17   60 1
  35   18   19 am
  36   18   61 1
  37   19   20 2
  38   19   21 1
  39   21   22 1
  40   21   62 1
  41   21   63 1
  42   22   25 1
  43   23   24 1
  44   23   27 1
  45   23   38 am
  46   24   25 1
  47   24   64 1
  48   24   65 1
  49   25   26 1
  50   25   66 1
  51   26   27 1
  52   26   67 1
  53   26   68 1
  54   27   28 1
  55   27   69 1
  56   28   29 1
  57   28   70 1
  58   28   71 1
  59   29   30 1
  60   29   72 1
  61   30   31 ar
  62   30   35 ar
  63   31   32 ar
  64   31   73 1
  65   32   33 ar
  66   32   36 1
  67   33   34 ar
  68   33   74 1
  69   34   35 ar
  70   34   75 1
  71   36   37 1
  72   37   76 1
  73   37   77 1
  74   37   78 1
  75   38   39 2
  76   38   40 1
  77   40   41 1
  78   40   79 1
  79   40   80 1
  80   41   42 1
  81   41   43 1
  82   41   44 1
  83   42   81 1
  84   42   82 1
  85   42   83 1
  86   43   84 1
  87   43   85 1
  88   43   86 1
  89   44   87 1
  90   44   88 1
  91   44   89 1

#	End of record

