#	Name: ASD01150672
#	Creating user name:	WinNT
#	Creation time:	15. 06. 2019 19:04

#	Modifying user name:	WinNT
#	Modification time:	15. 06. 2019 19:04

#	Program:	/corina/corina34_cracker 3.40 0067  02.08.2006

@<TRIPOS>MOLECULE
ASD01150672
  36   39    0    0    0
SMALL
NO_CHARGES


@<TRIPOS>ATOM
   1 C1            -0.0217     1.5093    -0.0045 C.2     
   2 C2            -0.7530     1.3188     1.2993 C.3     
   3 C3             3.7160     3.4690    -0.0653 C.ar    
   4 C4             2.5743     4.2594    -0.1440 C.ar    
   5 C5             1.2996     3.6263    -0.1269 C.ar    
   6 C6             1.2586     2.2176    -0.0286 C.ar    
   7 C7             2.4673     1.5106     0.0459 C.ar    
   8 N8             3.6171     2.1347     0.0254 N.ar    
   9 C9             2.8790     5.6898    -0.2356 C.2     
  10 C10            4.1757     5.9647    -0.2275 C.2     
  11 S11            5.1418     4.4960    -0.1004 S.3     
  12 C12            4.4035     7.4707    -0.3255 C.3     
  13 C13            3.0483     8.1004     0.0532 C.3     
  14 C14            2.0660     6.9800    -0.3413 C.3     
  15 C15            0.0627     4.4148    -0.2088 C.2     
  16 C16           -0.8359     4.3739    -1.2359 C.2     
  17 C17           -1.9087     5.2183    -1.0540 C.2     
  18 C18           -1.8882     5.9241     0.0807 C.2     
  19 S19           -0.5011     5.5565     1.0036 S.3     
  20 C20            2.4415     0.0075     0.1516 C.3     
  21 F21           -1.9773     0.6858     1.0592 F       
  22 F22            0.0203     0.5286     2.1566 F       
  23 F23           -0.9808     2.5651     1.8927 F       
  24 O24           -0.4922     1.0710    -1.0338 O.2     
  25 H25            5.1766     7.7839     0.3762 H       
  26 H26            4.6791     7.7472    -1.3432 H       
  27 H27            2.9979     8.3057     1.1225 H       
  28 H28            2.8623     9.0050    -0.5259 H       
  29 H29            1.7160     7.1250    -1.3633 H       
  30 H30            1.2229     6.9545     0.3491 H       
  31 H31           -0.7171     3.7431    -2.1044 H       
  32 H32           -2.7078     5.3040    -1.7755 H       
  33 H33           -2.6505     6.6296     0.3763 H       
  34 H34            2.3606    -0.4256    -0.8454 H       
  35 H35            3.3602    -0.3392     0.6249 H       
  36 H36            1.5852    -0.2999     0.7519 H       
@<TRIPOS>BOND
   1    1    2 1
   2    1    6 1
   3    1   24 2
   4    2   21 1
   5    2   22 1
   6    2   23 1
   7    3    4 ar
   8    3    8 ar
   9    3   11 1
  10    4    5 ar
  11    4    9 1
  12    5    6 ar
  13    5   15 1
  14    6    7 ar
  15    7    8 ar
  16    7   20 1
  17    9   10 2
  18    9   14 1
  19   10   11 1
  20   10   12 1
  21   12   13 1
  22   12   25 1
  23   12   26 1
  24   13   14 1
  25   13   27 1
  26   13   28 1
  27   14   29 1
  28   14   30 1
  29   15   16 2
  30   15   19 1
  31   16   17 1
  32   16   31 1
  33   17   18 2
  34   17   32 1
  35   18   19 1
  36   18   33 1
  37   20   34 1
  38   20   35 1
  39   20   36 1

#	End of record

