#	Name: ASD03330676
#	Creating user name:	WinNT
#	Creation time:	15. 06. 2019 20:37

#	Modifying user name:	WinNT
#	Modification time:	15. 06. 2019 20:37

#	Program:	/corina/corina34_cracker 3.40 0067  02.08.2006

@<TRIPOS>MOLECULE
ASD03330676
  56   58    0    0    0
SMALL
NO_CHARGES


@<TRIPOS>ATOM
   1 C1            -0.0029     1.3580    -0.1259 C.2     
   2 N2             0.0177     0.0074    -0.2171 N.pl3   
   3 C3             1.2717     1.7630     0.1332 C.2     
   4 N4             2.0523     0.6615     0.1791 N.2     
   5 C5             1.3078    -0.3976    -0.0361 C.2     
   6 C6             1.7873    -1.7968    -0.0750 C.ar    
   7 C7             1.7190     3.1536     0.3277 C.2     
   8 O8             0.9168     4.0653     0.2614 O.2     
   9 C9             3.4617     4.7975     0.7723 C.3     
  10 N10            3.0171     3.4150     0.5790 N.am    
  11 C11            3.7482     5.4361    -0.5882 C.3     
  12 C12            2.4744     5.4238    -1.4357 C.3     
  13 C13            4.2126     6.8798    -0.3863 C.3     
  14 C14            4.8441     4.6431    -1.3031 C.3     
  15 C15            4.7163     4.8095     1.6071 C.2     
  16 O16            5.3072     5.9751     1.9139 O.3     
  17 O17            5.1904     3.7700     2.0002 O.2     
  18 C18            6.5122     5.9108     2.7214 C.3     
  19 C19           -1.1496    -0.8467    -0.4534 C.3     
  20 C20           -1.9684    -0.2701    -1.6126 C.3     
  21 C21           -2.9674     0.7519    -1.0793 C.3     
  22 N22           -2.4180     1.4729     0.0709 N.3     
  23 C23           -1.2162     2.2342    -0.3007 C.3     
  24 C24            3.0773    -2.0830    -0.5227 C.ar    
  25 C25            0.9533    -2.8349     0.3411 C.ar    
  26 C26            1.4064    -4.1375     0.3023 C.ar    
  27 C27            2.6848    -4.4153    -0.1476 C.ar    
  28 C28            3.5185    -3.3898    -0.5566 C.ar    
  29 H29            2.6810     5.3624     1.2817 H       
  30 H30            3.6569     2.6879     0.6319 H       
  31 H31            1.6937     5.9887    -0.9263 H       
  32 H32            2.6786     5.8788    -2.4049 H       
  33 H33            2.1436     4.3953    -1.5795 H       
  34 H34            5.1201     6.8885     0.2175 H       
  35 H35            4.4167     7.3348    -1.3555 H       
  36 H36            3.4319     7.4447     0.1231 H       
  37 H37            4.5133     3.6145    -1.4470 H       
  38 H38            5.0482     5.0980    -2.2724 H       
  39 H39            5.7516     4.6518    -0.6993 H       
  40 H40            6.2848     5.4374     3.6765 H       
  41 H41            7.2697     5.3274     2.1979 H       
  42 H42            6.8869     6.9194     2.8959 H       
  43 H43           -0.8187    -1.8539    -0.7068 H       
  44 H44           -1.7647    -0.8799     0.4459 H       
  45 H45           -1.2990     0.2140    -2.3236 H       
  46 H46           -2.5059    -1.0758    -2.1127 H       
  47 H47           -3.2053     1.4652    -1.8685 H       
  48 H48           -3.8792     0.2370    -0.7768 H       
  49 H49           -3.1133     2.0747     0.4861 H       
  50 H50           -1.1278     3.1112     0.3406 H       
  51 H51           -1.2916     2.5488    -1.3415 H       
  52 H52            3.7291    -1.2833    -0.8422 H       
  53 H53           -0.0446    -2.6192     0.6932 H       
  54 H54            0.7617    -4.9421     0.6242 H       
  55 H55            3.0350    -5.4365    -0.1753 H       
  56 H56            4.5154    -3.6131    -0.9072 H       
@<TRIPOS>BOND
   1    1    2 1
   2    1    3 2
   3    1   23 1
   4    2   19 1
   5    2    5 1
   6    3    4 1
   7    3    7 1
   8    4    5 2
   9    5    6 1
  10    6   24 ar
  11    6   25 ar
  12    7    8 2
  13    7   10 am
  14    9   10 1
  15    9   11 1
  16    9   15 1
  17    9   29 1
  18   10   30 1
  19   11   12 1
  20   11   13 1
  21   11   14 1
  22   12   31 1
  23   12   32 1
  24   12   33 1
  25   13   34 1
  26   13   35 1
  27   13   36 1
  28   14   37 1
  29   14   38 1
  30   14   39 1
  31   15   16 1
  32   15   17 2
  33   16   18 1
  34   18   40 1
  35   18   41 1
  36   18   42 1
  37   19   20 1
  38   19   43 1
  39   19   44 1
  40   20   21 1
  41   20   45 1
  42   20   46 1
  43   21   22 1
  44   21   47 1
  45   21   48 1
  46   22   23 1
  47   22   49 1
  48   23   50 1
  49   23   51 1
  50   24   28 ar
  51   24   52 1
  52   25   26 ar
  53   25   53 1
  54   26   27 ar
  55   26   54 1
  56   27   28 ar
  57   27   55 1
  58   28   56 1

#	End of record

