#	Name: ASD03570003
#	Creating user name:	WinNT
#	Creation time:	15. 06. 2019 20:43

#	Modifying user name:	WinNT
#	Modification time:	15. 06. 2019 20:43

#	Program:	/corina/corina34_cracker 3.40 0067  02.08.2006

@<TRIPOS>MOLECULE
ASD03570003
  54   56    0    0    0
SMALL
NO_CHARGES


@<TRIPOS>ATOM
   1 C1             0.8753     1.7015    -0.2378 C.ar    
   2 C2             0.7772     0.3769    -0.6161 C.ar    
   3 C3            -0.0136     0.0213    -1.6989 C.ar    
   4 C4            -0.7062     0.9957    -2.4024 C.ar    
   5 C5            -0.6086     2.3207    -2.0255 C.ar    
   6 C6             0.1823     2.6772    -0.9416 C.ar    
   7 O7            -0.1095    -1.2830    -2.0711 O.3     
   8 C8            -0.9414    -1.5775    -3.1950 C.3     
   9 N9             0.2811     4.0215    -0.5580 N.am    
  10 C10            1.4588     4.5141    -0.1258 C.2     
  11 N11            1.5791     5.8277     0.1507 N.am    
  12 O12            2.4129     3.7734     0.0146 O.2     
  13 C13            2.7657     6.3202     0.7104 C.ar    
  14 C14            3.6503     5.4638     1.3545 C.ar    
  15 C15            3.0795     7.6767     0.6245 C.ar    
  16 N16            4.1984     8.1421     1.1522 N.ar    
  17 C17            5.0534     7.3519     1.7740 C.ar    
  18 C18            4.8122     5.9975     1.8931 C.ar    
  19 O19            2.2290     8.5257    -0.0066 O.3     
  20 C20            2.5994     9.8276    -0.1266 C.ar    
  21 C21            3.1438    10.2885    -1.3170 C.ar    
  22 C22            3.5195    11.6122    -1.4363 C.ar    
  23 C23            3.3540    12.4780    -0.3707 C.ar    
  24 C24            2.8119    12.0214     0.8163 C.ar    
  25 C25            2.4287    10.6996     0.9388 C.ar    
  26 C26            3.3253     9.3454    -2.4784 C.3     
  27 C27            3.8064    10.1290    -3.7013 C.3     
  28 C28            4.3626     8.2814    -2.1140 C.3     
  29 C29            1.9912     8.6684    -2.7989 C.3     
  30 F30           -0.4614    -0.8996    -4.3208 F       
  31 F31           -0.9260    -2.9550    -3.4384 F       
  32 F32           -2.2512    -1.1660    -2.9262 F       
  33 H33            1.4875     1.9777     0.6080 H       
  34 H34            1.3165    -0.3822    -0.0690 H       
  35 H35           -1.3217     0.7182    -3.2454 H       
  36 H36           -1.1473     3.0793    -2.5738 H       
  37 H37           -0.4981     4.5973    -0.6035 H       
  38 H38            0.8443     6.4323    -0.0378 H       
  39 H39            3.4383     4.4079     1.4343 H       
  40 H40            5.9571     7.7702     2.1921 H       
  41 H41            5.5212     5.3599     2.4002 H       
  42 H42            3.9432    11.9714    -2.3625 H       
  43 H43            3.6491    13.5125    -0.4658 H       
  44 H44            2.6837    12.6995     1.6470 H       
  45 H45            2.0009    10.3445     1.8647 H       
  46 H46            4.7568    10.6113    -3.4729 H       
  47 H47            3.9377     9.4469    -4.5412 H       
  48 H48            3.0674    10.8870    -3.9609 H       
  49 H49            3.9475     7.6124    -1.3601 H       
  50 H50            4.6236     7.7087    -3.0039 H       
  51 H51            5.2557     8.7651    -1.7183 H       
  52 H52            1.2522     9.4264    -3.0585 H       
  53 H53            2.1225     7.9863    -3.6389 H       
  54 H54            1.6485     8.1102    -1.9277 H       
@<TRIPOS>BOND
   1    1    2 ar
   2    1    6 ar
   3    1   33 1
   4    2    3 ar
   5    2   34 1
   6    3    4 ar
   7    3    7 1
   8    4    5 ar
   9    4   35 1
  10    5    6 ar
  11    5   36 1
  12    6    9 1
  13    7    8 1
  14    8   30 1
  15    8   31 1
  16    8   32 1
  17    9   10 am
  18    9   37 1
  19   10   11 am
  20   10   12 2
  21   11   13 1
  22   11   38 1
  23   13   15 ar
  24   13   14 ar
  25   14   18 ar
  26   14   39 1
  27   15   16 ar
  28   15   19 1
  29   16   17 ar
  30   17   18 ar
  31   17   40 1
  32   18   41 1
  33   19   20 1
  34   20   21 ar
  35   20   25 ar
  36   21   22 ar
  37   21   26 1
  38   22   23 ar
  39   22   42 1
  40   23   24 ar
  41   23   43 1
  42   24   25 ar
  43   24   44 1
  44   25   45 1
  45   26   27 1
  46   26   28 1
  47   26   29 1
  48   27   46 1
  49   27   47 1
  50   27   48 1
  51   28   49 1
  52   28   50 1
  53   28   51 1
  54   29   52 1
  55   29   53 1
  56   29   54 1

#	End of record

