#	Name: ASD01914285
#	Creating user name:	WinNT
#	Creation time:	15. 06. 2019 20:03

#	Modifying user name:	WinNT
#	Modification time:	15. 06. 2019 20:03

#	Program:	/corina/corina34_cracker 3.40 0067  02.08.2006

@<TRIPOS>MOLECULE
ASD01914285
  34   36    0    0    0
SMALL
NO_CHARGES


@<TRIPOS>ATOM
   1 N1            -0.0154     1.2833     0.0091 N.2     
   2 N2             0.0021    -0.0041     0.0020 N.pl3   
   3 N3             1.1958    -0.4863    -0.0120 N.2     
   4 C4             2.0615     0.5146    -0.0149 C.ar    
   5 C5             1.2309     1.7280    -0.0004 C.ar    
   6 C6             1.8655     2.9826    -0.0004 C.ar    
   7 C7             3.2225     3.0458    -0.0137 C.ar    
   8 C8             4.0106     1.8944    -0.0278 C.ar    
   9 C9             3.4606     0.6522    -0.0282 C.ar    
  10 C10           -1.2068    -0.8316     0.0099 C.3     
  11 C11           -1.6423    -1.1119    -1.4298 C.3     
  12 C12           -2.9049    -1.9761    -1.4216 C.3     
  13 C13           -3.3239    -2.2458    -2.8067 C.1     
  14 C14           -3.6581    -2.4609    -3.9113 C.1     
  15 C15           -4.0657    -2.7233    -5.2588 C.ar    
  16 C16           -5.2012    -3.4975    -5.5003 C.ar    
  17 C17           -5.5820    -3.7420    -6.8077 C.ar    
  18 C18           -4.8157    -3.2048    -7.8329 C.ar    
  19 C19           -3.7020    -2.4465    -7.5223 C.ar    
  20 N20           -3.3632    -2.2234    -6.2689 N.ar    
  21 H21            1.2787     3.8892     0.0097 H       
  22 H22            3.7040     4.0126    -0.0136 H       
  23 H23            5.0860     1.9933    -0.0384 H       
  24 H24            4.0933    -0.2230    -0.0388 H       
  25 H25           -0.9988    -1.7739     0.5166 H       
  26 H26           -2.0040    -0.3051     0.5347 H       
  27 H27           -1.8504    -0.1695    -1.9365 H       
  28 H28           -0.8451    -1.6383    -1.9546 H       
  29 H29           -2.6968    -2.9185    -0.9149 H       
  30 H30           -3.7021    -1.4497    -0.8968 H       
  31 H31           -5.7744    -3.9003    -4.6784 H       
  32 H32           -6.4560    -4.3379    -7.0258 H       
  33 H33           -5.0866    -3.3780    -8.8639 H       
  34 H34           -3.1040    -2.0278    -8.3182 H       
@<TRIPOS>BOND
   1    1    2 1
   2    1    5 2
   3    2    3 1
   4    2   10 1
   5    3    4 2
   6    4    5 ar
   7    4    9 ar
   8    5    6 ar
   9    6    7 ar
  10    6   21 1
  11    7    8 ar
  12    7   22 1
  13    8    9 ar
  14    8   23 1
  15    9   24 1
  16   10   11 1
  17   10   25 1
  18   10   26 1
  19   11   12 1
  20   11   27 1
  21   11   28 1
  22   12   13 1
  23   12   29 1
  24   12   30 1
  25   13   14 3
  26   14   15 1
  27   15   16 ar
  28   15   20 ar
  29   16   17 ar
  30   16   31 1
  31   17   18 ar
  32   17   32 1
  33   18   19 ar
  34   18   33 1
  35   19   20 ar
  36   19   34 1

#	End of record

