#	Name: ASD01230790
#	Creating user name:	WinNT
#	Creation time:	15. 06. 2019 19:15

#	Modifying user name:	WinNT
#	Modification time:	15. 06. 2019 19:15

#	Program:	/corina/corina34_cracker 3.40 0067  02.08.2006

@<TRIPOS>MOLECULE
ASD01230790
  38   41    0    0    0
SMALL
NO_CHARGES


@<TRIPOS>ATOM
   1 C1            -0.0166     1.3739     0.0096 C.2     
   2 C2             0.0022    -0.0039     0.0292 C.2     
   3 C3            -1.2142    -0.6999     0.0346 C.2     
   4 C4            -2.3847    -0.0392     0.0106 C.2     
   5 N5            -2.4621     1.3303    -0.0263 N.pl3   
   6 C6            -1.3177     2.0759     0.0029 C.2     
   7 C7            -3.8091     1.9020    -0.1029 C.3     
   8 C8            -3.8869     3.2035     0.7004 C.3     
   9 S9            -2.6234     4.3268     0.0248 S.o2    
  10 N10           -1.2629     3.3854     0.0279 N.am    
  11 C11            1.2496     2.1412     0.0016 C.ar    
  12 O12           -2.8727     4.5995    -1.3473 O.2     
  13 O13           -2.3334     5.3709     0.9441 O.2     
  14 C14            2.1154     2.0527    -1.0888 C.ar    
  15 C15            3.2939     2.7702    -1.0901 C.ar    
  16 C16            3.6177     3.5762    -0.0132 C.ar    
  17 C17            2.7635     3.6678     1.0713 C.ar    
  18 C18            1.5792     2.9602     1.0820 C.ar    
  19 C19            4.9066     4.3571    -0.0213 C.3     
  20 C20            4.9127     5.5370    -1.0115 C.3     
  21 O21            5.5362     6.2812     0.0544 O.3     
  22 C22            4.9914     5.4289     1.0817 C.3     
  23 F23            6.0396     3.5411    -0.1079 F       
  24 H24            0.9401    -0.5393     0.0397 H       
  25 H25           -1.2111    -1.7796     0.0581 H       
  26 H26           -3.3017    -0.6097     0.0203 H       
  27 H27           -4.0537     2.1075    -1.1450 H       
  28 H28           -4.5265     1.1872     0.3001 H       
  29 H29           -4.8760     3.6486     0.5916 H       
  30 H30           -3.6822     3.0037     1.7522 H       
  31 H31            1.8639     1.4236    -1.9298 H       
  32 H32            3.9651     2.7022    -1.9335 H       
  33 H33            3.0223     4.2981     1.9092 H       
  34 H34            0.9132     3.0325     1.9291 H       
  35 H35            5.5569     5.3829    -1.8772 H       
  36 H36            3.9181     5.8955    -1.2765 H       
  37 H37            4.0207     5.7544     1.4559 H       
  38 H38            5.6979     5.1890     1.8763 H       
@<TRIPOS>BOND
   1    1    2 2
   2    1   11 1
   3    1    6 1
   4    2    3 1
   5    2   24 1
   6    3    4 2
   7    3   25 1
   8    4    5 1
   9    4   26 1
  10    5    6 1
  11    5    7 1
  12    6   10 2
  13    7    8 1
  14    7   27 1
  15    7   28 1
  16    8    9 1
  17    8   29 1
  18    8   30 1
  19    9   10 am
  20    9   12 2
  21    9   13 2
  22   11   14 ar
  23   11   18 ar
  24   14   15 ar
  25   14   31 1
  26   15   16 ar
  27   15   32 1
  28   16   17 ar
  29   16   19 1
  30   17   18 ar
  31   17   33 1
  32   18   34 1
  33   19   20 1
  34   19   23 1
  35   19   22 1
  36   20   21 1
  37   20   35 1
  38   20   36 1
  39   21   22 1
  40   22   37 1
  41   22   38 1

#	End of record

