#	Name: ASD00990120
#	Creating user name:	WinNT
#	Creation time:	15. 06. 2019 18:54

#	Modifying user name:	WinNT
#	Modification time:	15. 06. 2019 18:54

#	Program:	/corina/corina34_cracker 3.40 0067  02.08.2006

@<TRIPOS>MOLECULE
ASD00990120
  45   48    0    0    0
SMALL
NO_CHARGES


@<TRIPOS>ATOM
   1 C1            -0.0187     1.5289     0.0104 C.3     
   2 C2             0.0021    -0.0041     0.0020 C.3     
   3 C3             0.9438    -0.4768     1.0828 C.2     
   4 C4             1.8545     0.2936     1.6708 C.2     
   5 C5             2.0833     1.7482     1.3466 C.3     
   6 C6             1.4189     2.0570    -0.0004 C.3     
   7 N7             2.5232    -0.4796     2.6037 N.am    
   8 C8             3.6077    -0.0371     3.4837 C.3     
   9 C9             3.0274     0.4833     4.7734 C.2     
  10 N10            3.8432     0.9475     5.7406 N.am    
  11 C11            3.2791     1.4533     6.9944 C.3     
  12 O12            1.8262     0.4844     4.9411 O.2     
  13 C13            5.2942     0.9461     5.5381 C.3     
  14 C14            3.1627     0.3235     7.9849 C.2     
  15 N15            4.0889     0.0208     8.9343 N.pl3   
  16 C16            3.6168    -1.0718     9.6351 C.ar    
  17 C17            2.3778    -1.3962     9.0580 C.ar    
  18 N18            2.1593    -0.5012     8.0602 N.2     
  19 C19            4.1048    -1.8214    10.6967 C.ar    
  20 C20            3.3704    -2.8833    11.1816 C.ar    
  21 C21            2.1439    -3.2084    10.6140 C.ar    
  22 C22            1.6455    -2.4753     9.5607 C.ar    
  23 O23            1.0208    -1.7134     1.6184 O.3     
  24 C24            1.9879    -1.7185     2.5512 C.2     
  25 O25            2.3226    -2.6718     3.2295 O.2     
  26 Cl26           1.2342    -4.5490    11.2377 Cl      
  27 Cl27           3.9820    -3.8204    12.5089 Cl      
  28 H28           -0.5455     1.8903    -0.8728 H       
  29 H29           -0.5285     1.8807     0.9074 H       
  30 H30           -1.0003    -0.3849     0.1975 H       
  31 H31            0.3495    -0.3602    -0.9678 H       
  32 H32            1.6404     2.3708     2.1240 H       
  33 H33            3.1534     1.9449     1.2813 H       
  34 H34            1.9778     1.5726    -0.8012 H       
  35 H35            1.4097     3.1347    -0.1630 H       
  36 H36            4.2692    -0.8770     3.6957 H       
  37 H37            4.1727     0.7557     2.9935 H       
  38 H38            3.9313     2.2266     7.4004 H       
  39 H39            2.2914     1.8736     6.8050 H       
  40 H40            5.5983     1.8885     5.0825 H       
  41 H41            5.7950     0.8288     6.4991 H       
  42 H42            5.5687     0.1201     4.8821 H       
  43 H43            4.9259     0.4857     9.0899 H       
  44 H44            5.0572    -1.5739    11.1416 H       
  45 H45            0.6919    -2.7333     9.1243 H       
@<TRIPOS>BOND
   1    1    2 1
   2    1    6 1
   3    1   28 1
   4    1   29 1
   5    2    3 1
   6    2   30 1
   7    2   31 1
   8    3    4 2
   9    3   23 1
  10    4    5 1
  11    4    7 1
  12    5    6 1
  13    5   32 1
  14    5   33 1
  15    6   34 1
  16    6   35 1
  17    7    8 1
  18    7   24 am
  19    8    9 1
  20    8   36 1
  21    8   37 1
  22    9   10 am
  23    9   12 2
  24   10   11 1
  25   10   13 1
  26   11   14 1
  27   11   38 1
  28   11   39 1
  29   13   40 1
  30   13   41 1
  31   13   42 1
  32   14   15 1
  33   14   18 2
  34   15   16 1
  35   15   43 1
  36   16   17 ar
  37   16   19 ar
  38   17   18 1
  39   17   22 ar
  40   19   20 ar
  41   19   44 1
  42   20   21 ar
  43   20   27 1
  44   21   22 ar
  45   21   26 1
  46   22   45 1
  47   23   24 1
  48   24   25 2

#	End of record

