#	Name: ASD01915437
#	Creating user name:	WinNT
#	Creation time:	15. 06. 2019 20:05

#	Modifying user name:	WinNT
#	Modification time:	15. 06. 2019 20:05

#	Program:	/corina/corina34_cracker 3.40 0067  02.08.2006

@<TRIPOS>MOLECULE
ASD01915437
  42   46    0    0    0
SMALL
NO_CHARGES


@<TRIPOS>ATOM
   1 N1            -0.0169     1.3937     0.0097 N.pl3   
   2 N2             0.0021    -0.0041     0.0020 N.2     
   3 C3             1.2407    -0.4344    -0.0121 C.2     
   4 C4             2.1125     0.7422    -0.0141 C.ar    
   5 C5             1.2668     1.8671    -0.0000 C.ar    
   6 N6             1.7820     3.0932     0.0010 N.ar    
   7 C7             3.5062     0.9263    -0.0264 C.ar    
   8 C8             3.9924     2.2483    -0.0240 C.ar    
   9 C9             3.0768     3.3072    -0.0109 C.ar    
  10 C10            1.6779    -1.8509    -0.0232 C.ar    
  11 C11            0.9470    -2.8142     0.6706 C.ar    
  12 C12            1.3585    -4.1313     0.6563 C.ar    
  13 C13            2.4938    -4.4965    -0.0446 C.ar    
  14 C14            3.2234    -3.5449    -0.7344 C.ar    
  15 C15            2.8183    -2.2257    -0.7320 C.ar    
  16 C16            4.4305    -0.2288    -0.0410 C.ar    
  17 C17            5.2561    -0.4518    -1.1438 C.ar    
  18 C18            6.1158    -1.5308    -1.1511 C.ar    
  19 C19            6.1601    -2.3911    -0.0684 C.ar    
  20 C20            5.3441    -2.1756     1.0280 C.ar    
  21 C21            4.4845    -1.0968     1.0505 C.ar    
  22 C22            5.4012     2.5051    -0.0363 C.1     
  23 N23            6.5187     2.7088    -0.0460 N.1     
  24 C24            3.5893     4.7244    -0.0089 C.3     
  25 C25            3.1798     5.6254    -1.1757 C.3     
  26 C26            2.5699     5.8440     0.2104 C.3     
  27 H27           -0.8164     1.9429     0.0166 H       
  28 H28            0.0606    -2.5301     1.2184 H       
  29 H29            0.7932    -4.8784     1.1937 H       
  30 H30            2.8121    -5.5285    -0.0529 H       
  31 H31            4.1092    -3.8357    -1.2796 H       
  32 H32            3.3861    -1.4844    -1.2747 H       
  33 H33            5.2220     0.2187    -1.9898 H       
  34 H34            6.7552    -1.7045    -2.0039 H       
  35 H35            6.8343    -3.2348    -0.0793 H       
  36 H36            5.3832    -2.8511     1.8698 H       
  37 H37            3.8514    -0.9271     1.9088 H       
  38 H38            4.5869     4.8629     0.4079 H       
  39 H39            3.9078     6.3569    -1.5263 H       
  40 H40            2.5396     5.1931    -1.9447 H       
  41 H41            1.5285     5.5556     0.3532 H       
  42 H42            2.8967     6.7194     0.7717 H       
@<TRIPOS>BOND
   1    1    2 1
   2    1    5 1
   3    1   27 1
   4    2    3 2
   5    3    4 1
   6    3   10 1
   7    4    7 ar
   8    4    5 ar
   9    5    6 ar
  10    6    9 ar
  11    7    8 ar
  12    7   16 1
  13    8    9 ar
  14    8   22 1
  15    9   24 1
  16   10   11 ar
  17   10   15 ar
  18   11   12 ar
  19   11   28 1
  20   12   13 ar
  21   12   29 1
  22   13   14 ar
  23   13   30 1
  24   14   15 ar
  25   14   31 1
  26   15   32 1
  27   16   17 ar
  28   16   21 ar
  29   17   18 ar
  30   17   33 1
  31   18   19 ar
  32   18   34 1
  33   19   20 ar
  34   19   35 1
  35   20   21 ar
  36   20   36 1
  37   21   37 1
  38   22   23 3
  39   24   25 1
  40   24   26 1
  41   24   38 1
  42   25   26 1
  43   25   39 1
  44   25   40 1
  45   26   41 1
  46   26   42 1

#	End of record

