#	Name: ASD01411213
#	Creating user name:	WinNT
#	Creation time:	15. 06. 2019 19:19

#	Modifying user name:	WinNT
#	Modification time:	15. 06. 2019 19:19

#	Program:	/corina/corina34_cracker 3.40 0067  02.08.2006

@<TRIPOS>MOLECULE
ASD01411213
  48   51    0    0    0
SMALL
NO_CHARGES


@<TRIPOS>ATOM
   1 S1            -1.6215     2.7529     1.5542 S.o2    
   2 N2            -1.3525     1.2760     0.8757 N.am    
   3 C3            -0.2278     0.8825     0.4267 C.2     
   4 N4             0.9284     1.6186     0.4814 N.pl3   
   5 C5             1.1090     2.6851     1.4600 C.3     
   6 C6            -0.0651     3.6619     1.3696 C.3     
   7 C7            -0.0960    -0.4909    -0.2114 C.3     
   8 C8             1.2814    -1.0397     0.1691 C.3     
   9 C9             2.3968    -0.1590    -0.3777 C.3     
  10 C10            1.9797     1.3023    -0.4911 C.3     
  11 C11           -1.1743    -1.4047     0.3113 C.ar    
  12 C12           -2.0845    -1.9690    -0.5633 C.ar    
  13 C13           -3.0739    -2.8070    -0.0868 C.ar    
  14 C14           -3.1538    -3.0822     1.2708 C.ar    
  15 C15           -2.2392    -2.5146     2.1464 C.ar    
  16 C16           -1.2483    -1.6818     1.6639 C.ar    
  17 O17           -4.1264    -3.9059     1.7422 O.3     
  18 C18           -4.9322    -4.5236     0.8392 C.ar    
  19 C19           -4.5696    -5.7548     0.3126 C.ar    
  20 C20           -5.3919    -6.3814    -0.6066 C.ar    
  21 C21           -6.5756    -5.7793    -1.0006 C.ar    
  22 C22           -6.9372    -4.5527    -0.4762 C.ar    
  23 C23           -6.1216    -3.9265     0.4468 C.ar    
  24 C24           -7.4700    -6.4624    -2.0028 C.3     
  25 F25           -5.0403    -7.5804    -1.1204 F       
  26 O26           -2.6321     3.3301     0.7389 O.2     
  27 O27           -1.8681     2.4655     2.9238 O.2     
  28 H28            1.1493     2.2566     2.4614 H       
  29 H29            2.0391     3.2145     1.2532 H       
  30 H30           -0.0486     4.1613     0.4009 H       
  31 H31            0.0183     4.4047     2.1630 H       
  32 H32           -0.1745    -0.4052    -1.2952 H       
  33 H33            1.3608    -1.0833     1.2554 H       
  34 H34            1.3894    -2.0457    -0.2364 H       
  35 H35            3.2594    -0.2296     0.2849 H       
  36 H36            2.6817    -0.5225    -1.3651 H       
  37 H37            1.6067     1.4921    -1.4975 H       
  38 H38            2.8450     1.9381    -0.3039 H       
  39 H39           -2.0220    -1.7542    -1.6199 H       
  40 H40           -3.7848    -3.2473    -0.7703 H       
  41 H41           -2.2993    -2.7271     3.2035 H       
  42 H42           -0.5332    -1.2435     2.3443 H       
  43 H43           -3.6462    -6.2234     0.6197 H       
  44 H44           -7.8603    -4.0850    -0.7852 H       
  45 H45           -6.4076    -2.9701     0.8591 H       
  46 H46           -8.1815    -7.1009    -1.4790 H       
  47 H47           -8.0111    -5.7113    -2.5782 H       
  48 H48           -6.8645    -7.0692    -2.6760 H       
@<TRIPOS>BOND
   1    1    2 am
   2    1    6 1
   3    1   26 2
   4    1   27 2
   5    2    3 2
   6    3    4 1
   7    3    7 1
   8    4    5 1
   9    4   10 1
  10    5    6 1
  11    5   28 1
  12    5   29 1
  13    6   30 1
  14    6   31 1
  15    7    8 1
  16    7   11 1
  17    7   32 1
  18    8    9 1
  19    8   33 1
  20    8   34 1
  21    9   10 1
  22    9   35 1
  23    9   36 1
  24   10   37 1
  25   10   38 1
  26   11   12 ar
  27   11   16 ar
  28   12   13 ar
  29   12   39 1
  30   13   14 ar
  31   13   40 1
  32   14   15 ar
  33   14   17 1
  34   15   16 ar
  35   15   41 1
  36   16   42 1
  37   17   18 1
  38   18   19 ar
  39   18   23 ar
  40   19   20 ar
  41   19   43 1
  42   20   21 ar
  43   20   25 1
  44   21   22 ar
  45   21   24 1
  46   22   23 ar
  47   22   44 1
  48   23   45 1
  49   24   46 1
  50   24   47 1
  51   24   48 1

#	End of record

