#	Name: ASD01870600
#	Creating user name:	WinNT
#	Creation time:	15. 06. 2019 19:39

#	Modifying user name:	WinNT
#	Modification time:	15. 06. 2019 19:39

#	Program:	/corina/corina34_cracker 3.40 0067  02.08.2006

@<TRIPOS>MOLECULE
ASD01870600
  43   46    0    0    0
SMALL
NO_CHARGES


@<TRIPOS>ATOM
   1 C1             0.0128     1.3587     0.0340 C.ar    
   2 C2             0.0373    -0.0273     0.0302 C.ar    
   3 C3             1.2410    -0.7067     0.0160 C.ar    
   4 C4             2.4403    -0.0116     0.0054 C.ar    
   5 C5             2.4312     1.3739     0.0090 C.ar    
   6 C6             1.2037     2.0668     0.0235 C.ar    
   7 C7             3.4822     2.4132     0.0003 C.2     
   8 N8             2.8905     3.6213     0.0092 N.am    
   9 C9             1.5505     3.5037     0.0243 C.2     
  10 C10            3.5807     4.8440     0.0047 C.ar    
  11 C11            3.9087     5.4513    -1.1994 C.ar    
  12 C12            4.5874     6.6536    -1.2045 C.ar    
  13 C13            4.9426     7.2566    -0.0046 C.ar    
  14 C14            4.6155     6.6500     1.2010 C.ar    
  15 C15            3.9305     5.4493     1.2064 C.ar    
  16 O16            0.7582     4.4242     0.0350 O.2     
  17 O17            4.6796     2.2105    -0.0122 O.2     
  18 N18            5.6306     8.4754    -0.0107 N.am    
  19 C19            5.3929     9.3883     0.9519 C.2     
  20 C20            6.1952    10.6140     1.0141 C.2     
  21 O21            4.5123     9.1951     1.7696 O.2     
  22 C22            6.0602    11.6157     1.9324 C.2     
  23 C23            7.0259    12.5845     1.6177 C.2     
  24 C24            7.6995    12.1375     0.5349 C.2     
  25 O25            7.1999    10.9471     0.1776 O.3     
  26 C26            5.0666    11.6706     3.0641 C.3     
  27 F27            3.6065     4.8613     2.3788 F       
  28 C28           -1.3036     2.0922     0.0432 C.3     
  29 H29           -0.8904    -0.5801     0.0388 H       
  30 H30            1.2471    -1.7867     0.0136 H       
  31 H31            3.3777    -0.5478    -0.0053 H       
  32 H32            3.6332     4.9830    -2.1328 H       
  33 H33            4.8426     7.1253    -2.1419 H       
  34 H34            4.8922     7.1184     2.1340 H       
  35 H35            6.2785     8.6631    -0.7078 H       
  36 H36            7.1980    13.5128     2.1421 H       
  37 H37            8.5103    12.6529     0.0415 H       
  38 H38            5.5012    11.2110     3.9518 H       
  39 H39            4.8168    12.7098     3.2782 H       
  40 H40            4.1630    11.1307     2.7808 H       
  41 H41           -1.6153     2.2664     1.0731 H       
  42 H42           -1.1907     3.0479    -0.4687 H       
  43 H43           -2.0571     1.4930    -0.4680 H       
@<TRIPOS>BOND
   1    1    2 ar
   2    1    6 ar
   3    1   28 1
   4    2    3 ar
   5    2   29 1
   6    3    4 ar
   7    3   30 1
   8    4    5 ar
   9    4   31 1
  10    5    7 1
  11    5    6 ar
  12    6    9 1
  13    7    8 am
  14    7   17 2
  15    8    9 am
  16    8   10 1
  17    9   16 2
  18   10   11 ar
  19   10   15 ar
  20   11   12 ar
  21   11   32 1
  22   12   13 ar
  23   12   33 1
  24   13   14 ar
  25   13   18 1
  26   14   15 ar
  27   14   34 1
  28   15   27 1
  29   18   19 am
  30   18   35 1
  31   19   20 1
  32   19   21 2
  33   20   22 2
  34   20   25 1
  35   22   23 1
  36   22   26 1
  37   23   24 2
  38   23   36 1
  39   24   25 1
  40   24   37 1
  41   26   38 1
  42   26   39 1
  43   26   40 1
  44   28   41 1
  45   28   42 1
  46   28   43 1

#	End of record

