#	Name: ASD04881149
#	Creating user name:	WinNT
#	Creation time:	15. 06. 2019 20:53

#	Modifying user name:	WinNT
#	Modification time:	15. 06. 2019 20:53

#	Program:	/corina/corina34_cracker 3.40 0067  02.08.2006

@<TRIPOS>MOLECULE
ASD04881149
  83   88    0    0    0
SMALL
NO_CHARGES


@<TRIPOS>ATOM
   1 C1             0.2720     1.4193     0.2926 C.3     
   2 C2             0.2687    -0.1100     0.2182 C.3     
   3 C3             1.1251    -0.6730     1.3547 C.3     
   4 N4             2.4967    -0.1622     1.2350 N.3     
   5 C5             2.5302     1.3013     1.3510 C.3     
   6 C6             1.7158     1.9232     0.2144 C.3     
   7 C7             3.3344    -0.7566     2.1752 C.ar    
   8 C8             3.0649    -0.6166     3.5319 C.ar    
   9 C9             3.8910    -1.2025     4.4652 C.ar    
  10 C10            5.0033    -1.9404     4.0505 C.ar    
  11 C11            5.2761    -2.0830     2.6871 C.ar    
  12 C12            4.4416    -1.4979     1.7536 C.ar    
  13 N13            4.7084    -1.6433     0.3857 N.am    
  14 C14            5.9825    -1.7036    -0.0496 C.2     
  15 C15            6.2637    -1.9820    -1.4695 C.2     
  16 O16            6.9002    -1.5283     0.7291 O.2     
  17 N17            5.3438    -2.1975    -2.4487 N.2     
  18 C18            5.9731    -2.4080    -3.5659 C.2     
  19 O19            7.2940    -2.3367    -3.3492 O.3     
  20 C20            7.4923    -2.0661    -2.0491 C.2     
  21 C21            5.8883    -2.5674     5.0504 C.2     
  22 N22            5.6247    -2.4289     6.3649 N.am    
  23 O23            6.8557    -3.2092     4.6887 O.2     
  24 C24            6.5035    -3.0516     7.3579 C.3     
  25 C25            5.9840    -2.7432     8.7635 C.3     
  26 C26            6.9019    -3.3936     9.8006 C.3     
  27 N27            6.4044    -3.0983    11.1465 N.am    
  28 C28            5.4458    -3.9355    11.8772 C.3     
  29 C29            4.8970    -3.0406    13.0105 C.3     
  30 C30            6.0538    -2.0331    13.2048 C.3     
  31 C31            6.7717    -2.0287    11.8731 C.2     
  32 O32            7.5617    -1.1821    11.5126 O.2     
  33 N33           -0.4985     1.9656    -0.8273 N.pl3   
  34 C34           -0.0347     1.7652    -2.2024 C.3     
  35 C35           -1.6754     2.6775    -0.5840 C.ar    
  36 C36           -2.0559     2.9686     0.7199 C.ar    
  37 C37           -3.2198     3.6731     0.9569 C.ar    
  38 C38           -4.0062     4.0885    -0.1019 C.ar    
  39 C39           -3.6304     3.8004    -1.4012 C.ar    
  40 C40           -2.4650     3.1009    -1.6455 C.ar    
  41 C41            5.3209    -2.6887    -4.8951 C.3     
  42 C42            5.6018    -1.7132    -6.0399 C.3     
  43 C43            6.2288    -3.1088    -6.0528 C.3     
  44 H44           -0.1750     1.7392     1.2338 H       
  45 H45           -0.7530    -0.4770     0.3163 H       
  46 H46            0.6800    -0.4287    -0.7396 H       
  47 H47            0.7053    -0.3655     2.3124 H       
  48 H48            1.1365    -1.7614     1.2960 H       
  49 H49            2.1038     1.5996     2.3087 H       
  50 H50            3.5622     1.6469     1.2896 H       
  51 H51            2.1499     1.6366    -0.7435 H       
  52 H52            1.7279     3.0090     0.3097 H       
  53 H53            2.2061    -0.0469     3.8547 H       
  54 H54            3.6795    -1.0913     5.5184 H       
  55 H55            6.1350    -2.6523     2.3637 H       
  56 H56            3.9761    -1.7006    -0.2478 H       
  57 H57            8.4453    -1.9411    -1.5566 H       
  58 H58            4.8529    -1.9170     6.6534 H       
  59 H59            6.5180    -4.1307     7.2045 H       
  60 H60            7.5132    -2.6556     7.2487 H       
  61 H61            5.9695    -1.6642     8.9169 H       
  62 H62            4.9744    -3.1393     8.8727 H       
  63 H63            6.9163    -4.4726     9.6472 H       
  64 H64            7.9115    -2.9975     9.6914 H       
  65 H65            4.6364    -4.2465    11.2167 H       
  66 H66            5.9486    -4.8076    12.2952 H       
  67 H67            3.9848    -2.5318    12.6987 H       
  68 H68            4.7279    -3.6202    13.9180 H       
  69 H69            5.6621    -1.0419    13.4334 H       
  70 H70            6.7249    -2.3706    13.9946 H       
  71 H71           -0.4591     0.8425    -2.5982 H       
  72 H72           -0.3532     2.6055    -2.8194 H       
  73 H73            1.0532     1.6986    -2.2128 H       
  74 H74           -1.4423     2.6441     1.5474 H       
  75 H75           -3.5164     3.8994     1.9705 H       
  76 H76           -4.9162     4.6390     0.0862 H       
  77 H77           -4.2469     4.1263    -2.2259 H       
  78 H78           -2.1697     2.8800    -2.6606 H       
  79 H79            4.3276    -3.1350    -4.8465 H       
  80 H80            4.7934    -1.5181    -6.7446 H       
  81 H81            6.2583    -0.8684    -5.8316 H       
  82 H82            7.2978    -3.1821    -5.8530 H       
  83 H83            5.8329    -3.8318    -6.7660 H       
@<TRIPOS>BOND
   1    1    2 1
   2    1    6 1
   3    1   33 1
   4    1   44 1
   5    2    3 1
   6    2   45 1
   7    2   46 1
   8    3    4 1
   9    3   47 1
  10    3   48 1
  11    4    5 1
  12    4    7 1
  13    5    6 1
  14    5   49 1
  15    5   50 1
  16    6   51 1
  17    6   52 1
  18    7    8 ar
  19    7   12 ar
  20    8    9 ar
  21    8   53 1
  22    9   10 ar
  23    9   54 1
  24   10   11 ar
  25   10   21 1
  26   11   12 ar
  27   11   55 1
  28   12   13 1
  29   13   14 am
  30   13   56 1
  31   14   15 1
  32   14   16 2
  33   15   17 1
  34   15   20 2
  35   17   18 2
  36   18   19 1
  37   18   41 1
  38   19   20 1
  39   20   57 1
  40   21   22 am
  41   21   23 2
  42   22   24 1
  43   22   58 1
  44   24   25 1
  45   24   59 1
  46   24   60 1
  47   25   26 1
  48   25   61 1
  49   25   62 1
  50   26   27 1
  51   26   63 1
  52   26   64 1
  53   27   28 1
  54   27   31 am
  55   28   29 1
  56   28   65 1
  57   28   66 1
  58   29   30 1
  59   29   67 1
  60   29   68 1
  61   30   31 1
  62   30   69 1
  63   30   70 1
  64   31   32 2
  65   33   34 1
  66   33   35 1
  67   34   71 1
  68   34   72 1
  69   34   73 1
  70   35   36 ar
  71   35   40 ar
  72   36   37 ar
  73   36   74 1
  74   37   38 ar
  75   37   75 1
  76   38   39 ar
  77   38   76 1
  78   39   40 ar
  79   39   77 1
  80   40   78 1
  81   41   42 1
  82   41   43 1
  83   41   79 1
  84   42   43 1
  85   42   80 1
  86   42   81 1
  87   43   82 1
  88   43   83 1

#	End of record

