#	Name: ASD09116027
#	Creating user name:	WinNT
#	Creation time:	15. 06. 2019 21:20

#	Modifying user name:	WinNT
#	Modification time:	15. 06. 2019 21:20

#	Program:	/corina/corina34_cracker 3.40 0067  02.08.2006

@<TRIPOS>MOLECULE
ASD09116027
  69   75    0    0    0
SMALL
NO_CHARGES


@<TRIPOS>ATOM
   1 C1             5.4264    -1.2972     1.2151 C.ar    
   2 C2             4.3530    -2.1528     0.9654 C.ar    
   3 C3             4.4727    -3.4820     1.2853 C.ar    
   4 N4             5.6197    -3.8963     1.8242 N.ar    
   5 N5             6.6049    -3.1053     2.0519 N.ar    
   6 C6             6.5692    -1.8079     1.7664 C.ar    
   7 N7             3.4232    -4.3747     1.0535 N.pl3   
   8 N8             2.1703    -4.0733     0.4959 N.2     
   9 C9             1.4896    -5.1936     0.4559 C.2     
  10 N10            2.2432    -6.1797     0.9561 N.2     
  11 C11            3.4152    -5.7024     1.3167 C.2     
  12 N12            0.1894    -5.3345    -0.0299 N.pl3   
  13 C13           -0.3877    -6.6036    -0.1238 C.ar    
  14 C14           -1.7637    -6.7531    -0.0023 C.ar    
  15 C15            0.4132    -7.7177    -0.3447 C.ar    
  16 C16           -0.1685    -8.9688    -0.4358 C.ar    
  17 C17           -1.5261    -9.1135    -0.3101 C.ar    
  18 C18           -2.3326    -8.0085    -0.0958 C.ar    
  19 N19            4.4518    -6.4271     1.8736 N.pl3   
  20 C20            5.1630     0.1340     0.8178 C.3     
  21 C21            4.8095     0.1381    -0.6796 C.3     
  22 C22            3.6340    -0.7998    -0.9536 C.3     
  23 C23            3.1603    -1.4636     0.3510 C.3     
  24 C24            3.9126     0.6013     1.5828 C.3     
  25 C25            2.7369    -0.3362     1.3085 C.3     
  26 Cl26           7.9328    -0.7855     2.0963 Cl      
  27 C27            0.7070   -10.1816    -0.6746 C.3     
  28 C28            0.4568   -10.6876    -2.0974 C.3     
  29 C29           -0.7341   -11.6248    -2.1375 C.3     
  30 C30           -2.0671   -10.9565    -1.8649 C.3     
  31 C31           -2.1567   -10.4872    -0.4104 C.3     
  32 N32           -0.7896   -12.2509    -3.4652 N.3     
  33 C33           -1.8589   -13.2643    -3.5272 C.3     
  34 C34           -2.7946   -12.8711    -4.6896 C.3     
  35 C35           -1.8905   -11.9776    -5.5791 C.3     
  36 C36           -1.0360   -11.2416    -4.5171 C.3     
  37 H37           -0.3140    -4.5514    -0.3025 H       
  38 H38           -2.3883    -5.8882     0.1656 H       
  39 H39            1.4828    -7.6070    -0.4448 H       
  40 H40           -3.4015    -8.1281     0.0025 H       
  41 H41            4.3486    -7.3786     2.0311 H       
  42 H42            5.2826    -5.9842     2.1071 H       
  43 H43            6.0273     0.7661     1.0215 H       
  44 H44            4.5417     1.1500    -0.9839 H       
  45 H45            5.6748    -0.1909    -1.2550 H       
  46 H46            2.8120    -0.2302    -1.3872 H       
  47 H47            3.9450    -1.5711    -1.6581 H       
  48 H48            2.3496    -2.1680     0.1644 H       
  49 H49            4.1260     0.6086     2.6517 H       
  50 H50            3.6511     1.6102     1.2637 H       
  51 H51            1.9211     0.2305     0.8596 H       
  52 H52            2.3955    -0.7706     2.2482 H       
  53 H53            1.7552    -9.9044    -0.5634 H       
  54 H54            0.4536   -10.9630     0.0419 H       
  55 H55            0.2654    -9.8370    -2.7515 H       
  56 H56            1.3417   -11.2175    -2.4499 H       
  57 H57           -0.5822   -12.4088    -1.3957 H       
  58 H58           -2.1789   -10.0972    -2.5261 H       
  59 H59           -2.8706   -11.6661    -2.0623 H       
  60 H60           -1.6203   -11.1846     0.2332 H       
  61 H61           -3.2021   -10.4336    -0.1065 H       
  62 H62           -1.4274   -14.2475    -3.7148 H       
  63 H63           -2.4155   -13.2738    -2.5901 H       
  64 H64           -3.1211   -13.7551    -5.2374 H       
  65 H65           -3.6510   -12.3066    -4.3209 H       
  66 H66           -1.2636   -12.5844    -6.2325 H       
  67 H67           -2.4869   -11.2721    -6.1577 H       
  68 H68           -1.5862   -10.3941    -4.1084 H       
  69 H69           -0.0936   -10.9092    -4.9523 H       
@<TRIPOS>BOND
   1    1    2 ar
   2    1   20 1
   3    1    6 ar
   4    2    3 ar
   5    2   23 1
   6    3    4 ar
   7    3    7 1
   8    4    5 ar
   9    5    6 ar
  10    6   26 1
  11    7    8 1
  12    7   11 1
  13    8    9 2
  14    9   10 1
  15    9   12 1
  16   10   11 2
  17   11   19 1
  18   12   13 1
  19   12   37 1
  20   13   14 ar
  21   13   15 ar
  22   14   18 ar
  23   14   38 1
  24   15   16 ar
  25   15   39 1
  26   16   17 ar
  27   16   27 1
  28   17   18 ar
  29   17   31 1
  30   18   40 1
  31   19   41 1
  32   19   42 1
  33   20   21 1
  34   20   24 1
  35   20   43 1
  36   21   22 1
  37   21   44 1
  38   21   45 1
  39   22   23 1
  40   22   46 1
  41   22   47 1
  42   23   25 1
  43   23   48 1
  44   24   25 1
  45   24   49 1
  46   24   50 1
  47   25   51 1
  48   25   52 1
  49   27   28 1
  50   27   53 1
  51   27   54 1
  52   28   29 1
  53   28   55 1
  54   28   56 1
  55   29   30 1
  56   29   32 1
  57   29   57 1
  58   30   31 1
  59   30   58 1
  60   30   59 1
  61   31   60 1
  62   31   61 1
  63   32   33 1
  64   32   36 1
  65   33   34 1
  66   33   62 1
  67   33   63 1
  68   34   35 1
  69   34   64 1
  70   34   65 1
  71   35   36 1
  72   35   66 1
  73   35   67 1
  74   36   68 1
  75   36   69 1

#	End of record

