#	Name: ASD02560096
#	Creating user name:	WinNT
#	Creation time:	15. 06. 2019 20:24

#	Modifying user name:	WinNT
#	Modification time:	15. 06. 2019 20:24

#	Program:	/corina/corina34_cracker 3.40 0067  02.08.2006

@<TRIPOS>MOLECULE
ASD02560096
  61   64    0    0    0
SMALL
NO_CHARGES


@<TRIPOS>ATOM
   1 N1            -0.2194     1.2859     0.0350 N.2     
   2 N2            -0.1578     0.0528     0.0604 N.2     
   3 C3             1.1157     1.8818    -0.1034 C.3     
   4 N4             2.0568     0.7855     0.2387 N.3     
   5 C5             1.2303    -0.4124    -0.0560 C.3     
   6 S6             1.5615    -1.7217     1.1550 S.3     
   7 C7             1.1073    -0.9450     2.7302 C.3     
   8 C8             1.3299    -1.9229     3.8550 C.2     
   9 O9             1.7532    -3.0344     3.6175 O.2     
  10 N10            1.0585    -1.5624     5.1250 N.am    
  11 C11            3.1895     0.8252    -0.5776 C.ar    
  12 C12            1.1556    -2.5039     6.1556 C.ar    
  13 C13            1.3798    -2.0861     7.4611 C.ar    
  14 C14            1.4752    -3.0178     8.4758 C.ar    
  15 C15            1.3477    -4.3657     8.1933 C.ar    
  16 C16            1.1249    -4.7848     6.8948 C.ar    
  17 C17            1.0223    -3.8575     5.8761 C.ar    
  18 S18            1.4700    -5.5513     9.4910 S.o2    
  19 O19            1.8522    -6.7763     8.8806 O.2     
  20 O20            2.2180    -4.9338    10.5295 O.2     
  21 O21            0.0667    -5.7643    10.0404 O.3     
  22 C22            4.1616     1.8040    -0.3679 C.ar    
  23 C23            3.3442    -0.1118    -1.5879 C.ar    
  24 C24            4.4653    -0.0706    -2.3931 C.ar    
  25 C25            5.4247     0.8998    -2.1860 C.ar    
  26 C26            5.2787     1.8362    -1.1702 C.ar    
  27 C27            6.3727     2.8570    -0.9953 C.3     
  28 C28            5.8762     4.0400    -0.1667 C.3     
  29 C29            5.2360     3.4971     1.1163 C.3     
  30 C30            3.9299     2.7970     0.7406 C.3     
  31 C31            1.3437     2.3503    -1.5420 C.3     
  32 F32            0.2948     3.1905    -1.9305 F       
  33 F33            2.5535     3.0485    -1.6189 F       
  34 C34            1.5194    -0.6177     7.7697 C.3     
  35 C35            6.6465     0.9401    -3.0672 C.3     
  36 H36            1.2339     2.7138     0.5908 H       
  37 H37            1.4273    -0.7702    -1.0665 H       
  38 H38            1.7240    -0.0606     2.8903 H       
  39 H39            0.0568    -0.6555     2.7030 H       
  40 H40            0.7959    -0.6502     5.3246 H       
  41 H41            1.6499    -2.6936     9.4911 H       
  42 H42            1.0261    -5.8381     6.6773 H       
  43 H43            0.8480    -4.1855     4.8620 H       
  44 H44            0.0207    -6.4034    10.7647 H       
  45 H45            2.5916    -0.8705    -1.7441 H       
  46 H46            4.5913    -0.7964    -3.1829 H       
  47 H47            7.2192     2.3934    -0.4887 H       
  48 H48            6.6919     3.2130    -1.9748 H       
  49 H49            6.7150     4.6880     0.0873 H       
  50 H50            5.1365     4.6025    -0.7364 H       
  51 H51            5.9129     2.7879     1.5927 H       
  52 H52            5.0267     4.3207     1.7990 H       
  53 H53            3.2043     3.5416     0.4132 H       
  54 H54            3.5385     2.2741     1.6132 H       
  55 H55            1.3807     1.4853    -2.2042 H       
  56 H56            0.5390    -0.1996     7.9978 H       
  57 H57            2.1784    -0.4879     8.6281 H       
  58 H58            1.9418    -0.1035     6.9064 H       
  59 H59            6.4502     1.5743    -3.9317 H       
  60 H60            7.4876     1.3441    -2.5038 H       
  61 H61            6.8854    -0.0688    -3.4035 H       
@<TRIPOS>BOND
   1    1    2 2
   2    1    3 1
   3    2    5 1
   4    3    4 1
   5    3   31 1
   6    3   36 1
   7    4    5 1
   8    4   11 1
   9    5    6 1
  10    5   37 1
  11    6    7 1
  12    7    8 1
  13    7   38 1
  14    7   39 1
  15    8    9 2
  16    8   10 am
  17   10   12 1
  18   10   40 1
  19   11   22 ar
  20   11   23 ar
  21   12   13 ar
  22   12   17 ar
  23   13   14 ar
  24   13   34 1
  25   14   15 ar
  26   14   41 1
  27   15   16 ar
  28   15   18 1
  29   16   17 ar
  30   16   42 1
  31   17   43 1
  32   18   19 2
  33   18   20 2
  34   18   21 1
  35   21   44 1
  36   22   26 ar
  37   22   30 1
  38   23   24 ar
  39   23   45 1
  40   24   25 ar
  41   24   46 1
  42   25   26 ar
  43   25   35 1
  44   26   27 1
  45   27   28 1
  46   27   47 1
  47   27   48 1
  48   28   29 1
  49   28   49 1
  50   28   50 1
  51   29   30 1
  52   29   51 1
  53   29   52 1
  54   30   53 1
  55   30   54 1
  56   31   32 1
  57   31   33 1
  58   31   55 1
  59   34   56 1
  60   34   57 1
  61   34   58 1
  62   35   59 1
  63   35   60 1
  64   35   61 1

#	End of record

