#	Name: ASD01880912
#	Creating user name:	WinNT
#	Creation time:	15. 06. 2019 19:41

#	Modifying user name:	WinNT
#	Modification time:	15. 06. 2019 19:41

#	Program:	/corina/corina34_cracker 3.40 0067  02.08.2006

@<TRIPOS>MOLECULE
ASD01880912
  55   58    0    0    0
SMALL
NO_CHARGES


@<TRIPOS>ATOM
   1 N1            -0.0228     1.2630    -0.2230 N.ar    
   2 C2             0.0554    -0.0519    -0.2375 C.ar    
   3 N3             1.1921    -0.6841    -0.0260 N.ar    
   4 C4             2.3142    -0.0109     0.2121 C.ar    
   5 C5             2.2763     1.3776     0.2359 C.ar    
   6 C6             1.0560     2.0083     0.0081 C.ar    
   7 C7             3.5235     2.1804     0.5022 C.3     
   8 O8             4.2466     2.3559    -0.7177 O.3     
   9 C9             5.4035     3.0623    -0.6520 C.ar    
  10 C10            6.1571     3.2706    -1.8031 C.ar    
  11 C11            7.3269     3.9857    -1.7354 C.ar    
  12 C12            7.7678     4.5077    -0.5148 C.ar    
  13 C13            7.0069     4.2960     0.6383 C.ar    
  14 C14            5.8316     3.5820     0.5638 C.ar    
  15 C15            8.3550     4.3841    -2.7649 C.3     
  16 N16            9.3795     5.1498    -2.0458 N.am    
  17 C17            9.0368     5.2187    -0.7480 C.2     
  18 O18            9.6821     5.7873     0.1113 O.2     
  19 C19            7.4696     4.8518     1.9604 C.3     
  20 N20            0.9659     3.3914     0.0209 N.3     
  21 C21           -0.3040     3.8311     0.6170 C.3     
  22 C22           -0.3359     5.3610     0.6657 C.3     
  23 O23           -0.1494     5.8790    -0.6542 O.3     
  24 C24            1.0780     5.4710    -1.2646 C.3     
  25 C25            1.1242     3.9422    -1.3329 C.3     
  26 C26           10.2672     7.1650    -3.1098 C.3     
  27 C27           10.5788     5.7414    -2.6439 C.3     
  28 O28            3.4784    -0.6704     0.4290 O.3     
  29 C29            3.4325    -2.0981     0.3882 C.3     
  30 H30           -0.8378    -0.6283    -0.4280 H       
  31 H31            3.2490     3.1552     0.9053 H       
  32 H32            4.1486     1.6524     1.2224 H       
  33 H33            5.8223     2.8698    -2.7485 H       
  34 H34            5.2439     3.4190     1.4551 H       
  35 H35            8.7982     3.4958    -3.2150 H       
  36 H36            7.8944     5.0044    -3.5338 H       
  37 H37            7.0621     5.8536     2.0959 H       
  38 H38            7.1229     4.2063     2.7673 H       
  39 H39            8.5586     4.8976     1.9741 H       
  40 H40           -1.1349     3.4688     0.0117 H       
  41 H41           -0.3886     3.4329     1.6281 H       
  42 H42           -1.2988     5.6928     1.0541 H       
  43 H43            0.4626     5.7213     1.3143 H       
  44 H44            1.1376     5.8823    -2.2723 H       
  45 H45            1.9176     5.8345    -0.6722 H       
  46 H46            2.0822     3.6251    -1.7451 H       
  47 H47            0.3161     3.5817    -1.9694 H       
  48 H48            9.4675     7.1382    -3.8500 H       
  49 H49            9.9525     7.7659    -2.2565 H       
  50 H50           11.1595     7.6052    -3.5548 H       
  51 H51           11.3785     5.7682    -1.9037 H       
  52 H52           10.8935     5.1406    -3.4972 H       
  53 H53            2.7436    -2.4614     1.1508 H       
  54 H54            3.0907    -2.4227    -0.5946 H       
  55 H55            4.4283    -2.4992     0.5774 H       
@<TRIPOS>BOND
   1    1    2 ar
   2    1    6 ar
   3    2    3 ar
   4    2   30 1
   5    3    4 ar
   6    4    5 ar
   7    4   28 1
   8    5    6 ar
   9    5    7 1
  10    6   20 1
  11    7    8 1
  12    7   31 1
  13    7   32 1
  14    8    9 1
  15    9   10 ar
  16    9   14 ar
  17   10   11 ar
  18   10   33 1
  19   11   12 ar
  20   11   15 1
  21   12   13 ar
  22   12   17 1
  23   13   14 ar
  24   13   19 1
  25   14   34 1
  26   15   16 1
  27   15   35 1
  28   15   36 1
  29   16   17 am
  30   16   27 1
  31   17   18 2
  32   19   37 1
  33   19   38 1
  34   19   39 1
  35   20   21 1
  36   20   25 1
  37   21   22 1
  38   21   40 1
  39   21   41 1
  40   22   23 1
  41   22   42 1
  42   22   43 1
  43   23   24 1
  44   24   25 1
  45   24   44 1
  46   24   45 1
  47   25   46 1
  48   25   47 1
  49   26   27 1
  50   26   48 1
  51   26   49 1
  52   26   50 1
  53   27   51 1
  54   27   52 1
  55   28   29 1
  56   29   53 1
  57   29   54 1
  58   29   55 1

#	End of record

