#	Name: ASD03092115
#	Creating user name:	WinNT
#	Creation time:	15. 06. 2019 20:32

#	Modifying user name:	WinNT
#	Modification time:	15. 06. 2019 20:32

#	Program:	/corina/corina34_cracker 3.40 0067  02.08.2006

@<TRIPOS>MOLECULE
ASD03092115
  54   57    0    0    0
SMALL
NO_CHARGES


@<TRIPOS>ATOM
   1 N1             0.1339     1.3458     0.0418 N.am    
   2 C2            -0.0036    -0.0171    -0.0101 C.2     
   3 C3            -1.3386    -0.2900    -0.0520 C.2     
   4 C4            -2.0283     0.9329    -0.0250 C.2     
   5 N5            -1.1500     1.9057     0.0361 N.2     
   6 N6            -3.4169     1.0876    -0.0534 N.pl3   
   7 C7            -3.9816     2.3564     0.0977 C.ar    
   8 C8            -5.2377     2.6264    -0.4316 C.ar    
   9 C9            -5.7959     3.8813    -0.2820 C.ar    
  10 C10           -5.1074     4.8706     0.3937 C.ar    
  11 C11           -3.2910     3.3478     0.7819 C.ar    
  12 C12            1.0937    -1.0084    -0.0195 C.ar    
  13 C13            1.2966     2.0253     0.0947 C.2     
  14 C14            0.9723    -2.2223     0.6669 C.ar    
  15 C15            2.0205    -3.1180     0.6315 C.ar    
  16 N16            3.1246    -2.8431    -0.0367 N.ar    
  17 C17            3.2801    -1.7113    -0.6968 C.ar    
  18 C18            2.2802    -0.7614    -0.7196 C.ar    
  19 C19            4.5654    -1.4554    -1.4408 C.3     
  20 C20           -3.8524     4.6066     0.9250 C.ar    
  21 N21            1.2941     3.3714     0.0275 N.am    
  22 O22            2.3472     1.4244     0.2029 O.2     
  23 C23            2.5579     4.1101     0.0850 C.3     
  24 C24            1.9034    -4.4285     1.3664 C.3     
  25 C25            2.5946     5.4983    -0.5572 C.3     
  26 C26            2.6063     5.3597     0.9664 C.3     
  27 O27           -3.1767     5.5808     1.5893 O.3     
  28 C28           -1.8905     5.2389     2.1096 C.3     
  29 C29           -7.1581     4.1718    -0.8573 C.3     
  30 F30           -8.1392     3.8780     0.0957 F       
  31 F31           -7.2378     5.5240    -1.2071 F       
  32 F32           -7.3618     3.3831    -1.9947 F       
  33 H33           -1.7861    -1.2718    -0.0981 H       
  34 H34           -3.9887     0.3139    -0.1779 H       
  35 H35           -5.7777     1.8550    -0.9604 H       
  36 H36           -5.5462     5.8508     0.5083 H       
  37 H37           -2.3165     3.1395     1.1982 H       
  38 H38            0.0717    -2.4538     1.2161 H       
  39 H39            2.4143     0.1627    -1.2623 H       
  40 H40            4.4754    -1.8290    -2.4608 H       
  41 H41            4.7655    -0.3841    -1.4626 H       
  42 H42            5.3850    -1.9679    -0.9371 H       
  43 H43            0.4554     3.8511    -0.0590 H       
  44 H44            3.4607     3.5026     0.0225 H       
  45 H45            1.4747    -5.1799     0.7033 H       
  46 H46            2.8921    -4.7524     1.6914 H       
  47 H47            1.2587    -4.3010     2.2360 H       
  48 H48            3.5218     5.8042    -1.0419 H       
  49 H49            1.6785     5.8620    -1.0225 H       
  50 H50            1.6978     5.6322     1.5036 H       
  51 H51            3.5411     5.5745     1.4842 H       
  52 H52           -1.9921     4.4173     2.8187 H       
  53 H53           -1.2370     4.9345     1.2920 H       
  54 H54           -1.4613     6.1041     2.6150 H       
@<TRIPOS>BOND
   1    1    2 1
   2    1   13 am
   3    1    5 1
   4    2    3 2
   5    2   12 1
   6    3    4 1
   7    3   33 1
   8    4    5 2
   9    4    6 1
  10    6    7 1
  11    6   34 1
  12    7    8 ar
  13    7   11 ar
  14    8    9 ar
  15    8   35 1
  16    9   10 ar
  17    9   29 1
  18   10   20 ar
  19   10   36 1
  20   11   20 ar
  21   11   37 1
  22   12   14 ar
  23   12   18 ar
  24   13   21 am
  25   13   22 2
  26   14   15 ar
  27   14   38 1
  28   15   16 ar
  29   15   24 1
  30   16   17 ar
  31   17   18 ar
  32   17   19 1
  33   18   39 1
  34   19   40 1
  35   19   41 1
  36   19   42 1
  37   20   27 1
  38   21   23 1
  39   21   43 1
  40   23   25 1
  41   23   26 1
  42   23   44 1
  43   24   45 1
  44   24   46 1
  45   24   47 1
  46   25   26 1
  47   25   48 1
  48   25   49 1
  49   26   50 1
  50   26   51 1
  51   27   28 1
  52   28   52 1
  53   28   53 1
  54   28   54 1
  55   29   30 1
  56   29   31 1
  57   29   32 1

#	End of record

