#	Name: ASD01912400
#	Creating user name:	WinNT
#	Creation time:	15. 06. 2019 19:59

#	Modifying user name:	WinNT
#	Modification time:	15. 06. 2019 19:59

#	Program:	/corina/corina34_cracker 3.40 0067  02.08.2006

@<TRIPOS>MOLECULE
ASD01912400
  53   56    0    0    0
SMALL
NO_CHARGES


@<TRIPOS>ATOM
   1 O1            -0.0387     1.3797     0.0153 O.3     
   2 C2            -0.0155     0.0448    -0.2018 C.2     
   3 C3             1.2948    -0.3283    -0.4194 C.2     
   4 C4             2.0647     0.8341    -0.3255 C.2     
   5 C5             1.2100     1.8630    -0.0574 C.2     
   6 C6            -1.1388    -0.8182    -0.2051 C.2     
   7 O7            -0.9912    -2.0091    -0.4136 O.2     
   8 N8            -2.3709    -0.3215     0.0225 N.am    
   9 C9            -3.4897    -1.1543    -0.0769 C.ar    
  10 C10           -3.4066    -2.4822     0.3218 C.ar    
  11 C11           -4.5136    -3.3019     0.2228 C.ar    
  12 C12           -5.7040    -2.8019    -0.2726 C.ar    
  13 C13           -5.7902    -1.4803    -0.6703 C.ar    
  14 C14           -4.6883    -0.6539    -0.5690 C.ar    
  15 N15            1.5712     3.1846     0.1113 N.3     
  16 C16            0.3959     4.0202     0.3876 C.3     
  17 C17            0.8547     5.4215     0.8071 C.3     
  18 C18            1.7871     5.9545    -0.2605 C.2     
  19 C19            2.9121     5.0551    -0.7281 C.3     
  20 C20            2.3226     3.6771    -1.0500 C.3     
  21 C21            1.6228     7.1739    -0.7717 C.2     
  22 C22            2.5187     7.6540    -1.7804 C.1     
  23 C23            3.2532     8.0476    -2.6074 C.1     
  24 C24            4.1490     8.5278    -3.6161 C.ar    
  25 C25            3.9722     9.8080    -4.1491 C.ar    
  26 C26            4.8461    10.2562    -5.1224 C.ar    
  27 C27            5.8700     9.4132    -5.5342 C.ar    
  28 C28            5.9878     8.1583    -4.9651 C.ar    
  29 N29            5.1467     7.7547    -4.0354 N.ar    
  30 C30            7.0982     7.2420    -5.4106 C.3     
  31 H31            1.6557    -1.3257    -0.6224 H       
  32 H32            3.1360     0.9046    -0.4426 H       
  33 H33           -2.4814     0.6137     0.2552 H       
  34 H34           -2.4771    -2.8734     0.7083 H       
  35 H35           -4.4495    -4.3346     0.5322 H       
  36 H36           -6.5682    -3.4451    -0.3493 H       
  37 H37           -6.7213    -1.0929    -1.0567 H       
  38 H38           -4.7575     0.3794    -0.8757 H       
  39 H39           -0.2180     4.0923    -0.5102 H       
  40 H40           -0.1874     3.5726     1.1922 H       
  41 H41           -0.0100     6.0785     0.9014 H       
  42 H42            1.3806     5.3661     1.7602 H       
  43 H43            3.3720     5.4762    -1.6221 H       
  44 H44            3.6588     4.9604     0.0603 H       
  45 H45            3.1293     2.9819    -1.2826 H       
  46 H46            1.6544     3.7588    -1.9073 H       
  47 H47            0.8141     7.8002    -0.4252 H       
  48 H48            3.1646    10.4376    -3.8059 H       
  49 H49            4.7347    11.2403    -5.5531 H       
  50 H50            6.5682     9.7348    -6.2929 H       
  51 H51            7.9783     7.4089    -4.7896 H       
  52 H52            6.7754     6.2055    -5.3123 H       
  53 H53            7.3440     7.4487    -6.4522 H       
@<TRIPOS>BOND
   1    1    2 1
   2    1    5 1
   3    2    3 2
   4    2    6 1
   5    3    4 1
   6    3   31 1
   7    4    5 2
   8    4   32 1
   9    5   15 1
  10    6    7 2
  11    6    8 am
  12    8    9 1
  13    8   33 1
  14    9   10 ar
  15    9   14 ar
  16   10   11 ar
  17   10   34 1
  18   11   12 ar
  19   11   35 1
  20   12   13 ar
  21   12   36 1
  22   13   14 ar
  23   13   37 1
  24   14   38 1
  25   15   16 1
  26   15   20 1
  27   16   17 1
  28   16   39 1
  29   16   40 1
  30   17   18 1
  31   17   41 1
  32   17   42 1
  33   18   19 1
  34   18   21 2
  35   19   20 1
  36   19   43 1
  37   19   44 1
  38   20   45 1
  39   20   46 1
  40   21   22 1
  41   21   47 1
  42   22   23 3
  43   23   24 1
  44   24   25 ar
  45   24   29 ar
  46   25   26 ar
  47   25   48 1
  48   26   27 ar
  49   26   49 1
  50   27   28 ar
  51   27   50 1
  52   28   29 ar
  53   28   30 1
  54   30   51 1
  55   30   52 1
  56   30   53 1

#	End of record

