#	Name: ASD04840039
#	Creating user name:	WinNT
#	Creation time:	15. 06. 2019 20:52

#	Modifying user name:	WinNT
#	Modification time:	15. 06. 2019 20:52

#	Program:	/corina/corina34_cracker 3.40 0067  02.08.2006

@<TRIPOS>MOLECULE
ASD04840039
  48   50    0    0    0
SMALL
NO_CHARGES


@<TRIPOS>ATOM
   1 P1            -0.0198     1.6058     0.0109 P.3     
   2 O2             0.0021    -0.0041     0.0020 O.3     
   3 O3             1.4907     2.1630    -0.0006 O.3     
   4 O4            -0.7356     2.0960    -1.1881 O.2     
   5 C5             0.5087    -0.7695    -1.0932 C.3     
   6 N6             0.3861    -2.1974    -0.7890 N.pl3   
   7 C7            -2.7231    -2.9705    -2.3614 C.ar    
   8 N8            -2.8904    -4.2505    -2.1211 N.ar    
   9 C9            -1.9852    -4.9465    -1.4220 C.ar    
  10 C10           -0.8456    -4.2910    -0.9437 C.ar    
  11 C11           -0.7152    -2.9066    -1.2319 C.ar    
  12 N12           -1.6656    -2.3057    -1.9323 N.ar    
  13 C13            0.0290    -5.1819    -0.2114 C.2     
  14 C14           -0.4036    -6.4401    -0.1286 C.2     
  15 S15           -1.9388    -6.6393    -0.9521 S.3     
  16 C16            0.3174    -7.5268     0.5678 C.ar    
  17 C17           -0.2181    -8.8152     0.5998 C.ar    
  18 C18            1.6684    -9.5624     1.8715 C.ar    
  19 C19            1.5394    -7.2700     1.1913 C.ar    
  20 C20            0.4600    -9.8249     1.2510 C.ar    
  21 C21            2.2074    -8.2885     1.8390 C.ar    
  22 C22            2.4034   -10.6701     2.5814 C.3     
  23 C23           -0.8730     2.1937     1.5107 C.3     
  24 C24           -0.1330     1.6868     2.7503 C.3     
  25 C25            2.3858     1.9631    -1.0964 C.3     
  26 C26            3.7321     2.6181    -0.7814 C.3     
  27 H27           -0.0626    -0.5393    -1.9925 H       
  28 H28            1.5576    -0.5214    -1.2555 H       
  29 H29            1.0776    -2.6453    -0.2770 H       
  30 H30           -3.4735    -2.4445    -2.9330 H       
  31 H31            0.9575    -4.8538     0.2319 H       
  32 H32           -1.1615    -9.0213     0.1161 H       
  33 H33            1.9613    -6.2761     1.1663 H       
  34 H34            0.0465   -10.8223     1.2767 H       
  35 H35            3.1511    -8.0902     2.3254 H       
  36 H36            3.0771   -11.1654     1.8822 H       
  37 H37            2.9795   -10.2528     3.4073 H       
  38 H38            1.6852   -11.3931     2.9681 H       
  39 H39           -0.8878     3.2836     1.5167 H       
  40 H40           -1.8956     1.8164     1.5185 H       
  41 H41            0.8895     2.0641     2.7425 H       
  42 H42           -0.6432     2.0384     3.6471 H       
  43 H43           -0.1183     0.5970     2.7443 H       
  44 H44            2.5303     0.8947    -1.2572 H       
  45 H45            1.9648     2.4122    -1.9960 H       
  46 H46            3.5875     3.6865    -0.6205 H       
  47 H47            4.1530     2.1690     0.1182 H       
  48 H48            4.4148     2.4656    -1.6172 H       
@<TRIPOS>BOND
   1    1    2 1
   2    1    3 1
   3    1    4 2
   4    1   23 1
   5    2    5 1
   6    3   25 1
   7    5    6 1
   8    5   27 1
   9    5   28 1
  10    6   11 1
  11    6   29 1
  12    7    8 ar
  13    7   12 ar
  14    7   30 1
  15    8    9 ar
  16    9   10 ar
  17    9   15 1
  18   10   11 ar
  19   10   13 1
  20   11   12 ar
  21   13   14 2
  22   13   31 1
  23   14   15 1
  24   14   16 1
  25   16   17 ar
  26   16   19 ar
  27   17   20 ar
  28   17   32 1
  29   18   20 ar
  30   18   21 ar
  31   18   22 1
  32   19   21 ar
  33   19   33 1
  34   20   34 1
  35   21   35 1
  36   22   36 1
  37   22   37 1
  38   22   38 1
  39   23   24 1
  40   23   39 1
  41   23   40 1
  42   24   41 1
  43   24   42 1
  44   24   43 1
  45   25   26 1
  46   25   44 1
  47   25   45 1
  48   26   46 1
  49   26   47 1
  50   26   48 1

#	End of record

