#	Name: ASD02198432
#	Creating user name:	WinNT
#	Creation time:	15. 06. 2019 20:19

#	Modifying user name:	WinNT
#	Modification time:	15. 06. 2019 20:19

#	Program:	/corina/corina34_cracker 3.40 0067  02.08.2006

@<TRIPOS>MOLECULE
ASD02198432
  43   45    0    0    0
SMALL
NO_CHARGES


@<TRIPOS>ATOM
   1 C1             0.8082    -0.5888     1.3155 C.ar    
   2 S2            -0.0505     0.1023    -0.0592 S.o2    
   3 N3             0.7523    -0.3726    -1.4276 N.am    
   4 C4             2.0337     0.1109    -1.6872 C.ar    
   5 C5             2.4355     0.3791    -3.0149 C.ar    
   6 C6             3.7418     0.8704    -3.2563 C.ar    
   7 C7             4.6170     1.0835    -2.1801 C.ar    
   8 C8             4.2000     0.8134    -0.8960 C.ar    
   9 C9             2.9113     0.3347    -0.6506 C.ar    
  10 N10            1.6019     0.1751    -4.0385 N.ar    
  11 C11            1.9655     0.4204    -5.2738 C.ar    
  12 C12            3.2351     0.9048    -5.5814 C.ar    
  13 C13            4.1365     1.1359    -4.5820 C.ar    
  14 O14           -1.3212    -0.5324    -0.0988 O.2     
  15 O15            0.1122     1.5109     0.0330 O.2     
  16 C16            0.8874    -1.9657     1.4636 C.ar    
  17 O17            5.0495     1.0206     0.1442 O.3     
  18 C18            6.3518     1.5173    -0.1708 C.3     
  19 C19            1.5647    -2.5067     2.5470 C.ar    
  20 C20            2.1582    -1.6736     3.4751 C.ar    
  21 C21            2.0775    -0.3012     3.3254 C.ar    
  22 C22            1.4081     0.2403     2.2438 C.ar    
  23 O23            0.3022    -2.7833     0.5494 O.3     
  24 C24            2.7251     0.6056     4.3400 C.3     
  25 C25            0.4241    -4.1906     0.7656 C.3     
  26 H26            0.3308    -0.9872    -2.0485 H       
  27 H27            5.6143     1.4576    -2.3585 H       
  28 H28            2.6026     0.1291     0.3637 H       
  29 H29            1.2625     0.2421    -6.0741 H       
  30 H30            3.5059     1.0977    -6.6090 H       
  31 H31            5.1250     1.5112    -4.8020 H       
  32 H32            6.2616     2.4812    -0.6718 H       
  33 H33            6.9267     1.6374     0.7474 H       
  34 H34            6.8604     0.8123    -0.8283 H       
  35 H35            1.6275    -3.5785     2.6647 H       
  36 H36            2.6855    -2.0942     4.3185 H       
  37 H37            1.3464     1.3125     2.1291 H       
  38 H38            3.7509     0.8156     4.0371 H       
  39 H39            2.1661     1.5393     4.4021 H       
  40 H40            2.7268     0.1176     5.3147 H       
  41 H41           -0.0862    -4.7267    -0.0346 H       
  42 H42            1.4784    -4.4671     0.7733 H       
  43 H43           -0.0270    -4.4515     1.7230 H       
@<TRIPOS>BOND
   1    1    2 1
   2    1   16 ar
   3    1   22 ar
   4    2    3 am
   5    2   14 2
   6    2   15 2
   7    3    4 1
   8    3   26 1
   9    4    5 ar
  10    4    9 ar
  11    5    6 ar
  12    5   10 ar
  13    6    7 ar
  14    6   13 ar
  15    7    8 ar
  16    7   27 1
  17    8    9 ar
  18    8   17 1
  19    9   28 1
  20   10   11 ar
  21   11   12 ar
  22   11   29 1
  23   12   13 ar
  24   12   30 1
  25   13   31 1
  26   16   19 ar
  27   16   23 1
  28   17   18 1
  29   18   32 1
  30   18   33 1
  31   18   34 1
  32   19   20 ar
  33   19   35 1
  34   20   21 ar
  35   20   36 1
  36   21   22 ar
  37   21   24 1
  38   22   37 1
  39   23   25 1
  40   24   38 1
  41   24   39 1
  42   24   40 1
  43   25   41 1
  44   25   42 1
  45   25   43 1

#	End of record

