#	Name: ASD07930029
#	Creating user name:	WinNT
#	Creation time:	15. 06. 2019 21:11

#	Modifying user name:	WinNT
#	Modification time:	15. 06. 2019 21:11

#	Program:	/corina/corina34_cracker 3.40 0067  02.08.2006

@<TRIPOS>MOLECULE
ASD07930029
  51   54    0    0    0
SMALL
NO_CHARGES


@<TRIPOS>ATOM
   1 C1            -0.0167     1.3807     0.0096 C.2     
   2 N2             0.0021    -0.0041     0.0020 N.am    
   3 N3             1.2023     2.0320     0.0015 N.pl3   
   4 C4             2.2545     1.5040    -0.8785 C.3     
   5 C5             2.4301    -0.0046    -0.6026 C.3     
   6 C6             1.1260    -0.6674    -0.3006 C.2     
   7 C7             3.6038     2.1081    -0.4355 C.3     
   8 N8             4.2432     1.1401     0.4737 N.3     
   9 C9             3.3350    -0.0129     0.6493 C.3     
  10 C10            4.5423     1.7266     1.6926 C.ar    
  11 N11            5.1232     0.9988     2.6344 N.ar    
  12 C12            5.4231     1.5274     3.8097 C.ar    
  13 C13            5.1214     2.8606     4.0484 C.ar    
  14 C14            4.5128     3.5933     3.0388 C.ar    
  15 N15            4.2453     3.0031     1.8855 N.ar    
  16 F16            5.4132     3.4326     5.2371 F       
  17 C17            6.0835     0.6918     4.8758 C.3     
  18 C18            4.1658     5.0442     3.2519 C.3     
  19 C19            1.9625     1.7955    -2.3280 C.ar    
  20 C20            2.1416     3.2412    -4.2337 C.ar    
  21 C21            1.4240     2.3299    -4.9918 C.ar    
  22 C22            0.9723     1.1548    -4.4160 C.ar    
  23 C23            1.2411     0.8880    -3.0847 C.ar    
  24 N24           -1.1378     2.0425     0.0186 N.2     
  25 C25           -1.2164    -0.7493     0.3279 C.3     
  26 O26            1.0819    -1.8787    -0.3312 O.2     
  27 C27            2.4107     2.9730    -2.9006 C.ar    
  28 F28            1.1649     2.5883    -6.2923 F       
  29 F29            2.5832     4.3881    -4.7949 F       
  30 F30            3.1099     3.8610    -2.1605 F       
  31 F31            0.7995    -0.2589    -2.5235 F       
  32 C32            7.6036     0.7920     4.7336 C.3     
  33 H33            1.3581     2.8114     0.5575 H       
  34 H34            2.9183    -0.4925    -1.4462 H       
  35 H35            4.2388     2.2739    -1.3058 H       
  36 H36            3.4343     3.0500     0.0861 H       
  37 H37            2.7352     0.1114     1.5509 H       
  38 H38            3.9056    -0.9403     0.6980 H       
  39 H39            5.7858     1.0559     5.8591 H       
  40 H40            5.7760    -0.3480     4.7650 H       
  41 H41            5.0056     5.6675     2.9451 H       
  42 H42            3.2881     5.2989     2.6579 H       
  43 H43            3.9525     5.2155     4.3071 H       
  44 H44            0.4130     0.4444    -5.0067 H       
  45 H45           -1.9825     1.5657     0.0200 H       
  46 H46           -2.0230    -0.0493     0.5458 H       
  47 H47           -1.4972    -1.3749    -0.5194 H       
  48 H48           -1.0355    -1.3781     1.1996 H       
  49 H49            7.9013     0.4279     3.7502 H       
  50 H50            7.9111     1.8318     4.8444 H       
  51 H51            8.0813     0.1876     5.5047 H       
@<TRIPOS>BOND
   1    1    2 1
   2    1    3 1
   3    1   24 2
   4    2   25 1
   5    2    6 am
   6    3    4 1
   7    3   33 1
   8    4    7 1
   9    4   19 1
  10    4    5 1
  11    5    6 1
  12    5    9 1
  13    5   34 1
  14    6   26 2
  15    7    8 1
  16    7   35 1
  17    7   36 1
  18    8    9 1
  19    8   10 1
  20    9   37 1
  21    9   38 1
  22   10   11 ar
  23   10   15 ar
  24   11   12 ar
  25   12   13 ar
  26   12   17 1
  27   13   14 ar
  28   13   16 1
  29   14   15 ar
  30   14   18 1
  31   17   32 1
  32   17   39 1
  33   17   40 1
  34   18   41 1
  35   18   42 1
  36   18   43 1
  37   19   27 ar
  38   19   23 ar
  39   20   21 ar
  40   20   29 1
  41   20   27 ar
  42   21   22 ar
  43   21   28 1
  44   22   23 ar
  45   22   44 1
  46   23   31 1
  47   24   45 1
  48   25   46 1
  49   25   47 1
  50   25   48 1
  51   27   30 1
  52   32   49 1
  53   32   50 1
  54   32   51 1

#	End of record

