#	Name: ASD06660163
#	Creating user name:	WinNT
#	Creation time:	15. 06. 2019 21:08

#	Modifying user name:	WinNT
#	Modification time:	15. 06. 2019 21:08

#	Program:	/corina/corina34_cracker 3.40 0067  02.08.2006

@<TRIPOS>MOLECULE
ASD06660163
  46   47    0    0    0
SMALL
NO_CHARGES


@<TRIPOS>ATOM
   1 C1            -0.0161     1.3435     0.0104 C.2     
   2 N2             0.0021    -0.0041     0.0020 N.am    
   3 O3             1.0277     1.9653    -0.0009 O.2     
   4 O4            -1.1910     2.0009     0.0258 O.3     
   5 C5            -1.1900    -0.7180     0.1148 C.ar    
   6 C6            -1.9489    -0.9753    -1.0214 C.ar    
   7 C7            -3.1299    -1.6849    -0.8954 C.ar    
   8 C8            -3.5129    -2.1145     0.3682 C.ar    
   9 C9            -2.7103    -1.8234     1.4532 C.ar    
  10 N10           -1.5862    -1.1492     1.3017 N.ar    
  11 C11            1.2746    -0.7187    -0.1256 C.3     
  12 N12            4.0601    -0.7241     3.1162 N.3     
  13 C13            3.7345    -2.0302     2.5293 C.3     
  14 C14            3.1223    -1.8287     1.1412 C.3     
  15 C15            1.8576    -0.9745     1.2656 C.3     
  16 C16            2.2158     0.3608     1.9238 C.3     
  17 C17            2.8542     0.0959     3.2892 C.3     
  18 C18           -1.1346     3.4517     0.0341 C.3     
  19 C19           -0.4062     3.9410    -1.2192 C.3     
  20 C20           -2.5561     4.0173     0.0513 C.3     
  21 C21           -0.3821     3.9257     1.2791 C.3     
  22 H22           -1.6212    -0.6257    -1.9893 H       
  23 H23           -3.7403    -1.8994    -1.7601 H       
  24 H24           -4.4292    -2.6704     0.5009 H       
  25 H25           -3.0042    -2.1552     2.4380 H       
  26 H26            1.1078    -1.6703    -0.6303 H       
  27 H27            1.9727    -0.1165    -0.7071 H       
  28 H28            4.5517    -0.8331     3.9906 H       
  29 H29            4.6431    -2.6260     2.4425 H       
  30 H30            3.0204    -2.5482     3.1694 H       
  31 H31            3.8410    -1.3230     0.4964 H       
  32 H32            2.8664    -2.7976     0.7123 H       
  33 H33            1.1232    -1.4980     1.8777 H       
  34 H34            2.9202     0.9009     1.2913 H       
  35 H35            1.3121     0.9562     2.0540 H       
  36 H36            2.1443    -0.4321     3.9258 H       
  37 H37            3.1235     1.0442     3.7543 H       
  38 H38           -0.9423     3.6033    -2.1062 H       
  39 H39           -0.3638     5.0302    -1.2130 H       
  40 H40            0.6066     3.5381    -1.2315 H       
  41 H41           -3.0751     3.6687     0.9442 H       
  42 H42           -2.5138     5.1065     0.0575 H       
  43 H43           -3.0923     3.6796    -0.8357 H       
  44 H44            0.6306     3.5228     1.2668 H       
  45 H45           -0.3397     5.0149     1.2853 H       
  46 H46           -0.9010     3.5772     2.1720 H       
@<TRIPOS>BOND
   1    1    2 am
   2    1    3 2
   3    1    4 1
   4    2    5 1
   5    2   11 1
   6    4   18 1
   7    5    6 ar
   8    5   10 ar
   9    6    7 ar
  10    6   22 1
  11    7    8 ar
  12    7   23 1
  13    8    9 ar
  14    8   24 1
  15    9   10 ar
  16    9   25 1
  17   11   15 1
  18   11   26 1
  19   11   27 1
  20   12   13 1
  21   12   17 1
  22   12   28 1
  23   13   14 1
  24   13   29 1
  25   13   30 1
  26   14   15 1
  27   14   31 1
  28   14   32 1
  29   15   16 1
  30   15   33 1
  31   16   17 1
  32   16   34 1
  33   16   35 1
  34   17   36 1
  35   17   37 1
  36   18   19 1
  37   18   21 1
  38   18   20 1
  39   19   38 1
  40   19   39 1
  41   19   40 1
  42   20   41 1
  43   20   42 1
  44   20   43 1
  45   21   44 1
  46   21   45 1
  47   21   46 1

#	End of record

