#	Name: ASD01912392
#	Creating user name:	WinNT
#	Creation time:	15. 06. 2019 19:59

#	Modifying user name:	WinNT
#	Modification time:	15. 06. 2019 19:59

#	Program:	/corina/corina34_cracker 3.40 0067  02.08.2006

@<TRIPOS>MOLECULE
ASD01912392
  42   44    0    0    0
SMALL
NO_CHARGES


@<TRIPOS>ATOM
   1 C1            -0.0169     1.3921     0.0097 C.ar    
   2 C2             0.0021    -0.0041     0.0020 C.ar    
   3 C3             1.2180    -0.6606    -0.0132 C.ar    
   4 C4             2.3851     0.1028    -0.0203 C.ar    
   5 C5             2.2890     1.4927    -0.0119 C.ar    
   6 N6             1.1163     2.0859     0.0026 N.ar    
   7 C7            -1.2708     2.0835     0.0194 C.1     
   8 N8            -2.2656     2.6320     0.0271 N.1     
   9 N9             3.6319    -0.5169    -0.0351 N.3     
  10 C10            4.7131     0.4765    -0.0402 C.3     
  11 C11            6.0544    -0.2297     0.1886 C.3     
  12 C12            6.1899    -1.3342    -0.8385 C.2     
  13 C13            5.0209    -2.2804    -1.0158 C.3     
  14 C14            3.7453    -1.4439    -1.1680 C.3     
  15 C15            7.3003    -1.4688    -1.5623 C.2     
  16 C16            7.4029    -2.5220    -2.5271 C.1     
  17 C17            7.4870    -3.3855    -3.3180 C.1     
  18 C18            7.5896    -4.4387    -4.2828 C.ar    
  19 C19            8.7569    -4.5755    -5.0396 C.ar    
  20 C20            8.8397    -5.5978    -5.9669 C.ar    
  21 C21            7.7547    -6.4527    -6.1108 C.ar    
  22 C22            6.6298    -6.2609    -5.3297 C.ar    
  23 N23            6.5757    -5.2833    -4.4488 N.ar    
  24 C24            5.4514    -7.1875    -5.4842 C.3     
  25 H25           -0.9216    -0.5636     0.0082 H       
  26 H26            1.2633    -1.7396    -0.0190 H       
  27 H27            3.1889     2.0898    -0.0173 H       
  28 H28            4.7315     0.9889    -1.0021 H       
  29 H29            4.5439     1.2021     0.7554 H       
  30 H30            6.8701     0.4836     0.0711 H       
  31 H31            6.0793    -0.6554     1.1917 H       
  32 H32            5.1713    -2.8873    -1.9086 H       
  33 H33            4.9348    -2.9262    -0.1419 H       
  34 H34            2.8778    -2.1037    -1.1861 H       
  35 H35            3.7909    -0.8774    -2.0981 H       
  36 H36            8.1231    -0.7836    -1.4213 H       
  37 H37            9.5821    -3.8923    -4.9023 H       
  38 H38            9.7284    -5.7284    -6.5665 H       
  39 H39            7.7892    -7.2604    -6.8270 H       
  40 H40            5.5607    -8.0311    -4.8027 H       
  41 H41            4.5327    -6.6490    -5.2515 H       
  42 H42            5.4084    -7.5527    -6.5104 H       
@<TRIPOS>BOND
   1    1    2 ar
   2    1    6 ar
   3    1    7 1
   4    2    3 ar
   5    2   25 1
   6    3    4 ar
   7    3   26 1
   8    4    5 ar
   9    4    9 1
  10    5    6 ar
  11    5   27 1
  12    7    8 3
  13    9   10 1
  14    9   14 1
  15   10   11 1
  16   10   28 1
  17   10   29 1
  18   11   12 1
  19   11   30 1
  20   11   31 1
  21   12   13 1
  22   12   15 2
  23   13   14 1
  24   13   32 1
  25   13   33 1
  26   14   34 1
  27   14   35 1
  28   15   16 1
  29   15   36 1
  30   16   17 3
  31   17   18 1
  32   18   19 ar
  33   18   23 ar
  34   19   20 ar
  35   19   37 1
  36   20   21 ar
  37   20   38 1
  38   21   22 ar
  39   21   39 1
  40   22   23 ar
  41   22   24 1
  42   24   40 1
  43   24   41 1
  44   24   42 1

#	End of record

