#	Name: ASD09116127
#	Creating user name:	WinNT
#	Creation time:	15. 06. 2019 21:20

#	Modifying user name:	WinNT
#	Modification time:	15. 06. 2019 21:20

#	Program:	/corina/corina34_cracker 3.40 0067  02.08.2006

@<TRIPOS>MOLECULE
ASD09116127
  59   64    0    0    0
SMALL
NO_CHARGES


@<TRIPOS>ATOM
   1 N1            -0.0266     1.4808     0.1053 N.2     
   2 C2            -0.0140     0.0098     0.1912 C.3     
   3 C3             1.2225     1.8594     0.0813 C.2     
   4 N4             2.0842     0.8235     0.1406 N.2     
   5 C5             1.4646    -0.3258     0.2086 C.2     
   6 N6             1.6191     3.1791     0.0029 N.pl3   
   7 C7             2.9774     3.5092     0.0976 C.ar    
   8 C8             3.4716     4.6162    -0.5795 C.ar    
   9 C9             3.8281     2.7326     0.8730 C.ar    
  10 C10            5.1666     3.0583     0.9670 C.ar    
  11 C11            5.6621     4.1624     0.2857 C.ar    
  12 C12            4.8101     4.9418    -0.4860 C.ar    
  13 N13            7.0185     4.4929     0.3813 N.3     
  14 C14            7.3263     5.6896    -0.4141 C.3     
  15 C15            8.7977     6.0633    -0.2201 C.3     
  16 N16            2.0277    -1.5619     0.2796 N.pl3   
  17 C17           -0.6795    -0.4543     1.4612 C.ar    
  18 N18           -0.4094     0.1714     2.5893 N.ar    
  19 N19           -1.5199    -1.4726     1.4087 N.ar    
  20 C20           -2.1143    -1.8984     2.5014 C.ar    
  21 C21           -1.8488    -1.2664     3.7119 C.ar    
  22 C22           -0.9729    -0.2052     3.7303 C.ar    
  23 C23           -3.1147    -3.0187     2.7834 C.3     
  24 C24           -4.4443    -2.2732     3.1236 C.3     
  25 C25           -4.1474    -1.5704     4.4701 C.3     
  26 C26           -2.6714    -1.9701     4.7885 C.3     
  27 C27           -2.6537    -3.4403     4.2276 C.3     
  28 C28            7.8657     3.3625    -0.0238 C.3     
  29 C29            9.3372     3.7362     0.1703 C.3     
  30 N30            9.6450     4.9330    -0.6251 N.3     
  31 C31           11.0689     5.2799    -0.5248 C.3     
  32 H32           -0.5005    -0.4304    -0.6793 H       
  33 H33            0.9574     3.8781    -0.1176 H       
  34 H34            2.8091     5.2223    -1.1796 H       
  35 H35            3.4428     1.8740     1.4029 H       
  36 H36            5.8281     2.4547     1.5707 H       
  37 H37            5.1954     5.8002    -1.0162 H       
  38 H38            7.1393     5.4838    -1.4680 H       
  39 H39            6.6951     6.5159    -0.0870 H       
  40 H40            9.0356     6.9336    -0.8317 H       
  41 H41            8.9786     6.2956     0.8294 H       
  42 H42            2.9931    -1.6556     0.2830 H       
  43 H43            1.4638    -2.3498     0.3268 H       
  44 H44           -0.7456     0.3069     4.6536 H       
  45 H45           -3.1823    -3.8049     2.0314 H       
  46 H46           -4.6784    -1.5388     2.3530 H       
  47 H47           -5.2628    -2.9841     3.2363 H       
  48 H48           -4.2361    -0.4891     4.3644 H       
  49 H49           -4.8183    -1.9355     5.2477 H       
  50 H50           -2.3439    -1.8241     5.8178 H       
  51 H51           -3.3811    -4.0824     4.7242 H       
  52 H52           -1.6539    -3.8744     4.2335 H       
  53 H53            7.6278     2.4922     0.5878 H       
  54 H54            7.6849     3.1303    -1.0733 H       
  55 H55            9.5242     3.9420     1.2242 H       
  56 H56            9.9684     2.9099    -0.1568 H       
  57 H57           11.6719     4.4503    -0.8939 H       
  58 H58           11.2693     6.1690    -1.1227 H       
  59 H59           11.3221     5.4778     0.5168 H       
@<TRIPOS>BOND
   1    1    2 1
   2    1    3 2
   3    2   17 1
   4    2    5 1
   5    2   32 1
   6    3    4 1
   7    3    6 1
   8    4    5 2
   9    5   16 1
  10    6    7 1
  11    6   33 1
  12    7    8 ar
  13    7    9 ar
  14    8   12 ar
  15    8   34 1
  16    9   10 ar
  17    9   35 1
  18   10   11 ar
  19   10   36 1
  20   11   12 ar
  21   11   13 1
  22   12   37 1
  23   13   14 1
  24   13   28 1
  25   14   15 1
  26   14   38 1
  27   14   39 1
  28   15   30 1
  29   15   40 1
  30   15   41 1
  31   16   42 1
  32   16   43 1
  33   17   18 ar
  34   17   19 ar
  35   18   22 ar
  36   19   20 ar
  37   20   21 ar
  38   20   23 1
  39   21   22 ar
  40   21   26 1
  41   22   44 1
  42   23   24 1
  43   23   27 1
  44   23   45 1
  45   24   25 1
  46   24   46 1
  47   24   47 1
  48   25   26 1
  49   25   48 1
  50   25   49 1
  51   26   27 1
  52   26   50 1
  53   27   51 1
  54   27   52 1
  55   28   29 1
  56   28   53 1
  57   28   54 1
  58   29   30 1
  59   29   55 1
  60   29   56 1
  61   30   31 1
  62   31   57 1
  63   31   58 1
  64   31   59 1

#	End of record

