#	Name: ASD04880246
#	Creating user name:	WinNT
#	Creation time:	15. 06. 2019 20:53

#	Modifying user name:	WinNT
#	Modification time:	15. 06. 2019 20:53

#	Program:	/corina/corina34_cracker 3.40 0067  02.08.2006

@<TRIPOS>MOLECULE
ASD04880246
  38   41    0    0    0
SMALL
NO_CHARGES


@<TRIPOS>ATOM
   1 C1            -0.0144     1.2117     0.0087 C.2     
   2 O2             0.0438    -0.0026     0.0315 O.2     
   3 N3             1.1184     1.9397    -0.0483 N.am    
   4 N4             1.1858     3.3241    -0.1910 N.2     
   5 C5             2.3860     3.7924    -0.2199 C.2     
   6 C6             3.3748     2.6565    -0.0856 C.3     
   7 C7             2.4859     1.4029     0.0364 C.3     
   8 N8             3.7820     9.1857    -0.7568 N.ar    
   9 C9             2.8666    10.1175    -0.8691 C.ar    
  10 C10            1.5066     9.8148    -0.8600 C.ar    
  11 C11            1.0984     8.5178    -0.7320 C.ar    
  12 C12            2.0850     7.5190    -0.6121 C.ar    
  13 C13            1.7382     6.1681    -0.4769 C.ar    
  14 C14            2.7403     5.2162    -0.3620 C.ar    
  15 C15            4.0933     5.6021    -0.3799 C.ar    
  16 C16            4.4444     6.9066    -0.5092 C.ar    
  17 C17            3.4517     7.8969    -0.6284 C.ar    
  18 C18           -1.3276     1.8893     0.0373 C.ar    
  19 C19           -2.5036     1.1427    -0.0542 C.ar    
  20 C20           -3.7277     1.7827    -0.0263 C.ar    
  21 C21           -3.7881     3.1623     0.0918 C.ar    
  22 C22           -2.6254     3.9059     0.1823 C.ar    
  23 C23           -1.3971     3.2778     0.1618 C.ar    
  24 F24           -4.8674     1.0627    -0.1147 F       
  25 H25            4.0092     2.5953    -0.9698 H       
  26 H26            3.9799     2.7804     0.8125 H       
  27 H27            2.6454     0.9091     0.9950 H       
  28 H28            2.6800     0.7158    -0.7872 H       
  29 H29            3.1750    11.1475    -0.9710 H       
  30 H30            0.7762    10.6048    -0.9538 H       
  31 H31            0.0485     8.2648    -0.7227 H       
  32 H32            0.7000     5.8709    -0.4620 H       
  33 H33            4.8629     4.8498    -0.2892 H       
  34 H34            5.4878     7.1853    -0.5203 H       
  35 H35           -2.4566     0.0677    -0.1469 H       
  36 H36           -4.7470     3.6588     0.1129 H       
  37 H37           -2.6793     4.9807     0.2734 H       
  38 H38           -0.4906     3.8601     0.2371 H       
@<TRIPOS>BOND
   1    1    2 2
   2    1    3 am
   3    1   18 1
   4    3    4 1
   5    3    7 1
   6    4    5 2
   7    5    6 1
   8    5   14 1
   9    6    7 1
  10    6   25 1
  11    6   26 1
  12    7   27 1
  13    7   28 1
  14    8    9 ar
  15    8   17 ar
  16    9   10 ar
  17    9   29 1
  18   10   11 ar
  19   10   30 1
  20   11   12 ar
  21   11   31 1
  22   12   13 ar
  23   12   17 ar
  24   13   14 ar
  25   13   32 1
  26   14   15 ar
  27   15   16 ar
  28   15   33 1
  29   16   17 ar
  30   16   34 1
  31   18   19 ar
  32   18   23 ar
  33   19   20 ar
  34   19   35 1
  35   20   21 ar
  36   20   24 1
  37   21   22 ar
  38   21   36 1
  39   22   23 ar
  40   22   37 1
  41   23   38 1

#	End of record

