#	Name: ASD01912355
#	Creating user name:	WinNT
#	Creation time:	15. 06. 2019 19:59

#	Modifying user name:	WinNT
#	Modification time:	15. 06. 2019 19:59

#	Program:	/corina/corina34_cracker 3.40 0067  02.08.2006

@<TRIPOS>MOLECULE
ASD01912355
  46   48    0    0    0
SMALL
NO_CHARGES


@<TRIPOS>ATOM
   1 C1             0.0021    -0.0041     0.0020 C.1     
   2 C2            -0.0173     1.4278     0.0099 C.ar    
   3 C3             1.1806     2.1456     0.0023 C.ar    
   4 C4             1.1545     3.5246     0.0100 C.ar    
   5 C5            -0.0549     4.1969     0.0252 C.ar    
   6 C6            -1.2453     3.4921     0.0333 C.ar    
   7 C7            -1.2340     2.1125     0.0194 C.ar    
   8 N8             0.0175    -1.1399    -0.0042 N.1     
   9 C9             2.4462     4.3009     0.0023 C.3     
  10 N10            2.8531     4.5606    -1.3851 N.3     
  11 C11            3.9713     5.5109    -1.4363 C.3     
  12 C12            4.5241     5.5702    -2.8649 C.3     
  13 C13            3.3766     5.8748    -3.8050 C.2     
  14 C14            2.1147     5.0486    -3.6693 C.3     
  15 C15            1.7150     5.0225    -2.1896 C.3     
  16 C16            3.4738     6.8377    -4.7206 C.2     
  17 C17            2.3739     7.1056    -5.5975 C.1     
  18 C18            1.4721     7.3253    -6.3164 C.1     
  19 C19            0.3722     7.5932    -7.1933 C.ar    
  20 C20            0.4794     8.6047    -8.1523 C.ar    
  21 C21           -0.5919     8.8505    -8.9911 C.ar    
  22 C22           -1.7379     8.0793    -8.8475 C.ar    
  23 C23           -1.7773     7.0942    -7.8777 C.ar    
  24 N24           -0.7423     6.8744    -7.0934 N.ar    
  25 C25           -3.0199     6.2563    -7.7202 C.3     
  26 H26            2.1252     1.6221    -0.0092 H       
  27 H27           -0.0695     5.2768     0.0312 H       
  28 H28           -2.1857     4.0231     0.0458 H       
  29 H29           -2.1640     1.5636     0.0208 H       
  30 H30            2.3039     5.2481     0.5226 H       
  31 H31            3.2207     3.7225     0.5060 H       
  32 H32            3.6216     6.5000    -1.1405 H       
  33 H33            4.7574     5.1843    -0.7555 H       
  34 H34            5.2759     6.3561    -2.9358 H       
  35 H35            4.9691     4.6103    -3.1270 H       
  36 H36            1.3155     5.4988    -4.2580 H       
  37 H37            2.3012     4.0328    -4.0177 H       
  38 H38            0.8734     4.3436    -2.0522 H       
  39 H39            1.4289     6.0254    -1.8725 H       
  40 H40            4.3822     7.4163    -4.8014 H       
  41 H41            1.3858     9.1860    -8.2364 H       
  42 H42           -0.5388     9.6256    -9.7414 H       
  43 H43           -2.5913     8.2477    -9.4876 H       
  44 H44           -2.9468     5.3748    -8.3572 H       
  45 H45           -3.1192     5.9457    -6.6801 H       
  46 H46           -3.8923     6.8422    -8.0093 H       
@<TRIPOS>BOND
   1    1    2 1
   2    1    8 3
   3    2    3 ar
   4    2    7 ar
   5    3    4 ar
   6    3   26 1
   7    4    5 ar
   8    4    9 1
   9    5    6 ar
  10    5   27 1
  11    6    7 ar
  12    6   28 1
  13    7   29 1
  14    9   10 1
  15    9   30 1
  16    9   31 1
  17   10   11 1
  18   10   15 1
  19   11   12 1
  20   11   32 1
  21   11   33 1
  22   12   13 1
  23   12   34 1
  24   12   35 1
  25   13   14 1
  26   13   16 2
  27   14   15 1
  28   14   36 1
  29   14   37 1
  30   15   38 1
  31   15   39 1
  32   16   17 1
  33   16   40 1
  34   17   18 3
  35   18   19 1
  36   19   20 ar
  37   19   24 ar
  38   20   21 ar
  39   20   41 1
  40   21   22 ar
  41   21   42 1
  42   22   23 ar
  43   22   43 1
  44   23   24 ar
  45   23   25 1
  46   25   44 1
  47   25   45 1
  48   25   46 1

#	End of record

