#	Name: ASD01911648
#	Creating user name:	WinNT
#	Creation time:	15. 06. 2019 19:58

#	Modifying user name:	WinNT
#	Modification time:	15. 06. 2019 19:58

#	Program:	/corina/corina34_cracker 3.40 0067  02.08.2006

@<TRIPOS>MOLECULE
ASD01911648
  65   69    0    0    0
SMALL
NO_CHARGES


@<TRIPOS>ATOM
   1 C1             0.1197     1.4065     0.1987 C.ar    
   2 C2             0.1163     0.0270     0.2445 C.ar    
   3 C3             1.2648    -0.6817    -0.1012 C.ar    
   4 C4             2.4112     0.0070    -0.4915 C.ar    
   5 C5             2.4037     1.3866    -0.5337 C.ar    
   6 C6             1.2607     2.0853    -0.1894 C.ar    
   7 C7             1.2671    -2.1653    -0.0534 C.2     
   8 N8             0.2520    -2.9271     0.2971 N.2     
   9 C9             2.3511    -2.9973    -0.3803 C.2     
  10 C10            1.9507    -4.2899    -0.2081 C.2     
  11 N11            0.6533    -4.2662     0.2113 N.pl3   
  12 C12            2.7737    -5.4984    -0.4377 C.ar    
  13 C13            2.4513    -6.6967     0.1996 C.ar    
  14 C14            3.2225    -7.8199    -0.0186 C.ar    
  15 C15            4.3134    -7.7593    -0.8673 C.ar    
  16 C16            4.6384    -6.5738    -1.5019 C.ar    
  17 C17            3.8714    -5.4453    -1.2968 C.ar    
  18 C18           -0.1744    -5.4352     0.5187 C.3     
  19 C19           -0.1012    -5.7283     1.9951 C.2     
  20 N20           -0.7880    -6.7670     2.5107 N.am    
  21 O21            0.5758    -5.0296     2.7192 O.2     
  22 C22           -0.7304    -7.0707     3.9487 C.3     
  23 C23           -1.6197    -7.6232     1.6515 C.3     
  24 C24           -3.0157    -7.7287     2.2747 C.3     
  25 N25           -2.8938    -8.1783     3.6678 N.3     
  26 C26           -2.1632    -7.1991     4.4768 C.3     
  27 C27           -4.1517    -8.4441     4.2210 C.ar    
  28 C28           -4.4519    -9.7206     4.6928 C.ar    
  29 C29           -5.1008    -7.4364     4.3063 C.ar    
  30 C30           -6.3425    -7.7014     4.8536 C.ar    
  31 C31           -6.6412    -8.9690     5.3165 C.ar    
  32 C32           -5.6978    -9.9777     5.2395 C.ar    
  33 O33           -3.5235   -10.7115     4.6160 O.3     
  34 C34           -3.9010   -11.9946     5.1192 C.3     
  35 C35           -2.7364   -12.9722     4.9486 C.3     
  36 H36           -0.7715     1.9568     0.4622 H       
  37 H37           -0.7750    -0.5020     0.5480 H       
  38 H38            3.3043    -0.5376    -0.7601 H       
  39 H39            3.2919     1.9214    -0.8361 H       
  40 H40            1.2592     3.1647    -0.2235 H       
  41 H41            3.3269    -2.6717    -0.7091 H       
  42 H42            1.6002    -6.7451     0.8626 H       
  43 H43            2.9742    -8.7481     0.4744 H       
  44 H44            4.9139    -8.6412    -1.0349 H       
  45 H45            5.4917    -6.5326    -2.1627 H       
  46 H46            4.1260    -4.5204    -1.7930 H       
  47 H47           -1.2083    -5.2319     0.2395 H       
  48 H48            0.1906    -6.2962    -0.0413 H       
  49 H49           -0.1976    -8.0089     4.1038 H       
  50 H50           -0.2178    -6.2642     4.4730 H       
  51 H51           -1.6948    -7.1818     0.6576 H       
  52 H52           -1.1739    -8.6154     1.5818 H       
  53 H53           -3.5004    -6.7527     2.2485 H       
  54 H54           -3.6121    -8.4466     1.7116 H       
  55 H55           -2.1355    -7.5325     5.5142 H       
  56 H56           -2.6640    -6.2327     4.4182 H       
  57 H57           -4.8698    -6.4450     3.9457 H       
  58 H58           -7.0807    -6.9159     4.9199 H       
  59 H59           -7.6125    -9.1715     5.7432 H       
  60 H60           -5.9346   -10.9671     5.6018 H       
  61 H61           -4.1530   -11.9106     6.1763 H       
  62 H62           -4.7667   -12.3610     4.5673 H       
  63 H63           -3.0244   -13.9509     5.3324 H       
  64 H64           -2.4845   -13.0562     3.8914 H       
  65 H65           -1.8708   -12.6058     5.5004 H       
@<TRIPOS>BOND
   1    1    2 ar
   2    1    6 ar
   3    1   36 1
   4    2    3 ar
   5    2   37 1
   6    3    4 ar
   7    3    7 1
   8    4    5 ar
   9    4   38 1
  10    5    6 ar
  11    5   39 1
  12    6   40 1
  13    7    8 2
  14    7    9 1
  15    8   11 1
  16    9   10 2
  17    9   41 1
  18   10   11 1
  19   10   12 1
  20   11   18 1
  21   12   13 ar
  22   12   17 ar
  23   13   14 ar
  24   13   42 1
  25   14   15 ar
  26   14   43 1
  27   15   16 ar
  28   15   44 1
  29   16   17 ar
  30   16   45 1
  31   17   46 1
  32   18   19 1
  33   18   47 1
  34   18   48 1
  35   19   20 am
  36   19   21 2
  37   20   22 1
  38   20   23 1
  39   22   26 1
  40   22   49 1
  41   22   50 1
  42   23   24 1
  43   23   51 1
  44   23   52 1
  45   24   25 1
  46   24   53 1
  47   24   54 1
  48   25   26 1
  49   25   27 1
  50   26   55 1
  51   26   56 1
  52   27   28 ar
  53   27   29 ar
  54   28   33 1
  55   28   32 ar
  56   29   30 ar
  57   29   57 1
  58   30   31 ar
  59   30   58 1
  60   31   32 ar
  61   31   59 1
  62   32   60 1
  63   33   34 1
  64   34   35 1
  65   34   61 1
  66   34   62 1
  67   35   63 1
  68   35   64 1
  69   35   65 1

#	End of record

