#	Name: ASD01208952
#	Creating user name:	WinNT
#	Creation time:	15. 06. 2019 19:10

#	Modifying user name:	WinNT
#	Modification time:	15. 06. 2019 19:10

#	Program:	/corina/corina34_cracker 3.40 0067  02.08.2006

@<TRIPOS>MOLECULE
ASD01208952
  56   60    0    0    0
SMALL
NO_CHARGES


@<TRIPOS>ATOM
   1 C1            -1.8696     1.7062    -1.1848 C.3     
   2 C2            -2.0145     0.1814    -1.1673 C.3     
   3 C3            -1.4085    -0.3929    -2.4516 C.3     
   4 C4            -2.0992     0.2426    -3.6610 C.3     
   5 C5            -2.5426     2.2605    -2.4432 C.3     
   6 C6            -1.2772    -0.3889     0.0460 C.3     
   7 C7            -1.5524    -1.8903     0.1507 C.3     
   8 C8            -0.7085    -2.4802     1.2511 C.2     
   9 N9             0.6325    -2.5222     1.1230 N.am    
  10 C10            1.4041    -3.1762     2.0823 C.ar    
  11 N11           -2.9695    -2.1072     0.4524 N.pl3   
  12 C12           -3.8590    -2.8040    -0.3219 C.ar    
  13 C13           -5.0987    -2.7565     0.3507 C.ar    
  14 C14           -4.8972    -2.0127     1.5340 C.2     
  15 N15           -3.6492    -1.6432     1.5861 N.2     
  16 O16           -1.2361    -2.9172     2.2518 O.2     
  17 O17           -1.9531     1.6628    -3.5996 O.3     
  18 C18           -3.7802    -3.4849    -1.5315 C.ar    
  19 N19           -4.8470    -4.0713    -2.0323 N.ar    
  20 C20           -6.0230    -4.0449    -1.4261 C.ar    
  21 C21           -6.1971    -3.4016    -0.2350 C.ar    
  22 C22            0.8071    -4.0684     2.9682 C.ar    
  23 N23            1.5409    -4.6857     3.8750 N.ar    
  24 C24            2.8415    -4.4574     3.9423 C.ar    
  25 C25            3.4378    -3.5718     3.0638 C.ar    
  26 N26            2.7100    -2.9540     2.1495 N.ar    
  27 C27           -7.5245    -4.3139     2.0879 C.3     
  28 C28           -8.7537    -4.5822     2.9586 C.3     
  29 C29           -8.1160    -5.7229     2.1630 C.3     
  30 S30           -7.7736    -3.3817     0.5518 S.o2    
  31 O31           -8.0071    -2.0088     0.8340 O.2     
  32 O32           -8.6178    -4.1010    -0.3366 O.2     
  33 H33           -2.3474     2.1276    -0.3004 H       
  34 H34           -0.8124     1.9716    -1.1901 H       
  35 H35           -3.0702    -0.0840    -1.1119 H       
  36 H36           -0.3420    -0.1698    -2.4825 H       
  37 H37           -1.5565    -1.4725    -2.4732 H       
  38 H38           -1.6428    -0.1305    -4.5779 H       
  39 H39           -3.1584    -0.0146    -3.6513 H       
  40 H40           -3.6075     2.0297    -2.4175 H       
  41 H41           -2.4055     3.3411    -2.4827 H       
  42 H42           -0.2060    -0.2230    -0.0687 H       
  43 H43           -1.6271     0.1085     0.9506 H       
  44 H44           -1.3045    -2.3720    -0.7952 H       
  45 H45            1.0607    -2.0973     0.3634 H       
  46 H46           -5.6512    -1.7910     2.2748 H       
  47 H47           -2.8408    -3.5325    -2.0622 H       
  48 H48           -6.8641    -4.5441    -1.8842 H       
  49 H49           -0.2553    -4.2550     2.9139 H       
  50 H50            3.4396    -4.9636     4.6856 H       
  51 H51            4.5004    -3.3878     3.1218 H       
  52 H52           -6.5764    -4.1380     2.5961 H       
  53 H53           -8.6141    -4.5831     4.0397 H       
  54 H54           -9.7119    -4.1985     2.6085 H       
  55 H55           -8.6548    -6.0898     1.2894 H       
  56 H56           -7.5570    -6.4744     2.7206 H       
@<TRIPOS>BOND
   1    1    2 1
   2    1    5 1
   3    1   33 1
   4    1   34 1
   5    2    3 1
   6    2    6 1
   7    2   35 1
   8    3    4 1
   9    3   36 1
  10    3   37 1
  11    4   17 1
  12    4   38 1
  13    4   39 1
  14    5   17 1
  15    5   40 1
  16    5   41 1
  17    6    7 1
  18    6   42 1
  19    6   43 1
  20    7    8 1
  21    7   11 1
  22    7   44 1
  23    8    9 am
  24    8   16 2
  25    9   10 1
  26    9   45 1
  27   10   22 ar
  28   10   26 ar
  29   11   12 1
  30   11   15 1
  31   12   13 ar
  32   12   18 ar
  33   13   14 1
  34   13   21 ar
  35   14   15 2
  36   14   46 1
  37   18   19 ar
  38   18   47 1
  39   19   20 ar
  40   20   21 ar
  41   20   48 1
  42   21   30 1
  43   22   23 ar
  44   22   49 1
  45   23   24 ar
  46   24   25 ar
  47   24   50 1
  48   25   26 ar
  49   25   51 1
  50   27   28 1
  51   27   30 1
  52   27   29 1
  53   27   52 1
  54   28   29 1
  55   28   53 1
  56   28   54 1
  57   29   55 1
  58   29   56 1
  59   30   31 2
  60   30   32 2

#	End of record

