#	Name: ASD01200320
#	Creating user name:	WinNT
#	Creation time:	15. 06. 2019 19:08

#	Modifying user name:	WinNT
#	Modification time:	15. 06. 2019 19:08

#	Program:	/corina/corina34_cracker 3.40 0067  02.08.2006

@<TRIPOS>MOLECULE
ASD01200320
  50   53    0    0    0
SMALL
NO_CHARGES


@<TRIPOS>ATOM
   1 C1            -0.0167     1.3780     0.0096 C.ar    
   2 C2             0.0021    -0.0041     0.0020 C.ar    
   3 C3             1.2083    -0.6792    -0.0132 C.ar    
   4 C4             2.3967     0.0287    -0.0208 C.ar    
   5 C5             2.3773     1.4123    -0.0131 C.ar    
   6 C6             1.1709     2.0861     0.0021 C.ar    
   7 S7             1.2320    -2.4410    -0.0223 S.o2    
   8 C8             1.9648    -2.8755    -1.6238 C.3     
   9 O9             2.1124    -2.7851     1.0387 O.2     
  10 O10           -0.1397    -2.8101     0.0150 O.2     
  11 C11            1.1495     3.5929     0.0104 C.3     
  12 C12            1.8754     4.1063     1.2556 C.3     
  13 C13            1.8410     4.1119    -1.2239 C.2     
  14 C14            1.7465     5.6291     1.3295 C.3     
  15 C15            0.4607     7.4440     2.2834 C.3     
  16 C16            0.2897     6.0342     1.6651 C.3     
  17 C17            2.5744     6.1845     2.5068 C.3     
  18 C18            1.7569     7.3384     3.1133 C.3     
  19 C19            1.2239     4.4618    -2.3634 C.2     
  20 N20            3.1912     4.3021    -1.3474 N.pl3   
  21 C21            2.2653     4.9062    -3.2912 C.ar    
  22 C22            2.2639     5.3827    -4.6044 C.ar    
  23 C23            3.4858     4.7853    -2.5997 C.ar    
  24 N24            4.6200     5.1236    -3.1988 N.ar    
  25 C25            4.6410     5.5718    -4.4358 C.ar    
  26 C26            3.4772     5.7155    -5.1760 C.ar    
  27 Cl27           3.9119    -0.8184    -0.0393 Cl      
  28 H28           -0.9593     1.9050     0.0170 H       
  29 H29           -0.9258    -0.5566     0.0083 H       
  30 H30            3.3049     1.9655    -0.0187 H       
  31 H31            2.9681    -2.4547    -1.6904 H       
  32 H32            2.0189    -3.9602    -1.7162 H       
  33 H33            1.3477    -2.4727    -2.4269 H       
  34 H34            0.1169     3.9416     0.0222 H       
  35 H35            1.4306     3.6604     2.1452 H       
  36 H36            2.9292     3.8331     1.2004 H       
  37 H37            2.0646     6.0839     0.3914 H       
  38 H38            0.5696     8.1936     1.4996 H       
  39 H39           -0.3858     7.6836     2.9268 H       
  40 H40           -0.3166     6.0800     0.7605 H       
  41 H41           -0.1458     5.3452     2.3888 H       
  42 H42            2.7315     5.4057     3.2530 H       
  43 H43            3.5337     6.5557     2.1463 H       
  44 H44            2.3194     8.2697     3.0471 H       
  45 H45            1.5172     7.1196     4.1538 H       
  46 H46            0.1624     4.4226    -2.5585 H       
  47 H47            3.8440     4.1227    -0.6527 H       
  48 H48            1.3417     5.4875    -5.1567 H       
  49 H49            5.5871     5.8357    -4.8848 H       
  50 H50            3.5184     6.0875    -6.1891 H       
@<TRIPOS>BOND
   1    1    2 ar
   2    1    6 ar
   3    1   28 1
   4    2    3 ar
   5    2   29 1
   6    3    4 ar
   7    3    7 1
   8    4    5 ar
   9    4   27 1
  10    5    6 ar
  11    5   30 1
  12    6   11 1
  13    7    8 1
  14    7    9 2
  15    7   10 2
  16    8   31 1
  17    8   32 1
  18    8   33 1
  19   11   12 1
  20   11   13 1
  21   11   34 1
  22   12   14 1
  23   12   35 1
  24   12   36 1
  25   13   20 1
  26   13   19 2
  27   14   17 1
  28   14   16 1
  29   14   37 1
  30   15   16 1
  31   15   18 1
  32   15   38 1
  33   15   39 1
  34   16   40 1
  35   16   41 1
  36   17   18 1
  37   17   42 1
  38   17   43 1
  39   18   44 1
  40   18   45 1
  41   19   21 1
  42   19   46 1
  43   20   23 1
  44   20   47 1
  45   21   23 ar
  46   21   22 ar
  47   22   26 ar
  48   22   48 1
  49   23   24 ar
  50   24   25 ar
  51   25   26 ar
  52   25   49 1
  53   26   50 1

#	End of record

