#	Name: ASD02408407
#	Creating user name:	WinNT
#	Creation time:	15. 06. 2019 20:21

#	Modifying user name:	WinNT
#	Modification time:	15. 06. 2019 20:21

#	Program:	/corina/corina34_cracker 3.40 0067  02.08.2006

@<TRIPOS>MOLECULE
ASD02408407
  46   49    0    0    0
SMALL
NO_CHARGES


@<TRIPOS>ATOM
   1 N1            -0.1444     1.3798    -0.5476 N.am    
   2 C2            -0.1530     0.0229    -0.5619 C.2     
   3 N3             0.9323    -0.6938    -0.5302 N.2     
   4 C4             2.1504    -0.1334    -0.4809 C.2     
   5 C5             2.2600     1.2663    -0.4630 C.2     
   6 C6             1.0282     2.0543    -0.4988 C.2     
   7 N7             3.4199    -0.6225    -0.4403 N.pl3   
   8 N8             4.3066     0.4608    -0.3977 N.2     
   9 C9             3.6317     1.5775    -0.4107 C.2     
  10 C10           -1.4814    -0.6866    -0.6166 C.3     
  11 C11           -1.2498    -2.1923    -0.7584 C.3     
  12 C12            3.7780    -1.9766    -0.4406 C.ar    
  13 C13            3.2809    -2.8280     0.5374 C.ar    
  14 C14            3.6359    -4.1627     0.5344 C.ar    
  15 C15            4.4855    -4.6515    -0.4411 C.ar    
  16 C16            4.9826    -3.8062    -1.4161 C.ar    
  17 C17            4.6264    -2.4718    -1.4222 C.ar    
  18 C18            5.1681    -1.5513    -2.4854 C.3     
  19 C19            2.3554    -2.2961     1.6011 C.3     
  20 O20            1.0566     3.2723    -0.4860 O.2     
  21 C21           -2.5904    -2.9424    -0.6699 C.3     
  22 C22           -2.7678    -3.6874    -2.0091 C.3     
  23 C23           -1.3248    -3.8478    -2.5486 C.3     
  24 C24           -0.6593    -2.5076    -2.1482 C.3     
  25 H25           -0.9818     1.8684    -0.5765 H       
  26 H26            4.0537     2.5713    -0.3857 H       
  27 H27           -2.0368    -0.4892     0.3002 H       
  28 H28           -2.0517    -0.3246    -1.4720 H       
  29 H29           -0.5745    -2.5412     0.0229 H       
  30 H30            3.2499    -4.8253     1.2949 H       
  31 H31            4.7616    -5.6956    -0.4413 H       
  32 H32            5.6464    -4.1908    -2.1762 H       
  33 H33            4.4440    -1.4662    -3.2956 H       
  34 H34            5.3496    -0.5664    -2.0552 H       
  35 H35            6.1027    -1.9557    -2.8743 H       
  36 H36            1.3212    -2.4479     1.2920 H       
  37 H37            2.5361    -2.8243     2.5373 H       
  38 H38            2.5395    -1.2312     1.7435 H       
  39 H39           -2.5654    -3.6559     0.1538 H       
  40 H40           -3.4060    -2.2338    -0.5260 H       
  41 H41           -3.2245    -4.6634    -1.8451 H       
  42 H42           -3.3692    -3.0948    -2.6985 H       
  43 H43           -0.8234    -4.6872    -2.0668 H       
  44 H44           -1.3286    -3.9687    -3.6318 H       
  45 H45           -0.9201    -1.7245    -2.8601 H       
  46 H46            0.4228    -2.6227    -2.0858 H       
@<TRIPOS>BOND
   1    1    2 1
   2    1    6 am
   3    1   25 1
   4    2    3 2
   5    2   10 1
   6    3    4 1
   7    4    5 2
   8    4    7 1
   9    5    6 1
  10    5    9 1
  11    6   20 2
  12    7    8 1
  13    7   12 1
  14    8    9 2
  15    9   26 1
  16   10   11 1
  17   10   27 1
  18   10   28 1
  19   11   21 1
  20   11   24 1
  21   11   29 1
  22   12   13 ar
  23   12   17 ar
  24   13   14 ar
  25   13   19 1
  26   14   15 ar
  27   14   30 1
  28   15   16 ar
  29   15   31 1
  30   16   17 ar
  31   16   32 1
  32   17   18 1
  33   18   33 1
  34   18   34 1
  35   18   35 1
  36   19   36 1
  37   19   37 1
  38   19   38 1
  39   21   22 1
  40   21   39 1
  41   21   40 1
  42   22   23 1
  43   22   41 1
  44   22   42 1
  45   23   24 1
  46   23   43 1
  47   23   44 1
  48   24   45 1
  49   24   46 1

#	End of record

