#	Name: ASD07930482
#	Creating user name:	WinNT
#	Creation time:	15. 06. 2019 21:12

#	Modifying user name:	WinNT
#	Modification time:	15. 06. 2019 21:12

#	Program:	/corina/corina34_cracker 3.40 0067  02.08.2006

@<TRIPOS>MOLECULE
ASD07930482
  48   50    0    0    0
SMALL
NO_CHARGES


@<TRIPOS>ATOM
   1 C1            -0.0343     1.4581     0.0424 C.3     
   2 N2             0.7953    -0.4134    -2.1302 N.2     
   3 N3            -0.8904    -1.7835    -1.2685 N.pl3   
   4 C4            -0.9150    -2.8271    -0.2382 C.3     
   5 C5            -1.2300    -2.1885     1.1215 C.3     
   6 S6             0.0061    -0.8913     1.4434 S.o2    
   7 N7            -0.0141    -0.0067     0.0315 N.am    
   8 C8            -0.0113    -0.7260    -1.1552 C.2     
   9 C9             0.4500    -3.5153    -0.1755 C.3     
  10 C10           -1.9765    -3.8423    -0.5755 C.ar    
  11 C11           -2.8068    -3.6380    -1.6597 C.ar    
  12 C12           -3.7847    -4.5743    -1.9703 C.ar    
  13 C13           -3.9250    -5.7139    -1.1895 C.ar    
  14 C14           -3.0923    -5.9142    -0.1058 C.ar    
  15 C15           -2.1147    -4.9822     0.1989 C.ar    
  16 N16           -4.6275    -4.3691    -3.0684 N.am    
  17 C17           -5.0471    -5.4194    -3.8013 C.2     
  18 O18           -4.6175    -6.5324    -3.5697 O.2     
  19 O19           -0.4576     0.0117     2.4378 O.2     
  20 O20            1.3140    -1.4440     1.5003 O.2     
  21 F21           -1.3013    -5.1800     1.2593 F       
  22 C22           -6.0319    -5.2172    -4.8892 C.ar    
  23 C23           -6.4616    -6.3067    -5.6432 C.ar    
  24 C24           -7.3838    -6.1018    -6.6576 C.ar    
  25 C25           -7.8440    -4.8140    -6.8825 C.ar    
  26 C26           -7.3730    -3.7767    -6.0932 C.ar    
  27 N27           -6.5017    -3.9998    -5.1340 N.ar    
  28 C28           -5.9310    -7.6886    -5.3604 C.3     
  29 F29           -6.5121    -8.6017    -6.2468 F       
  30 F30           -4.5418    -7.6976    -5.5258 F       
  31 F31           -6.2465    -8.0493    -4.0460 F       
  32 H32            0.9882     1.8356     0.0394 H       
  33 H33           -0.5582     1.8209    -0.8419 H       
  34 H34           -0.5480     1.8077     0.9380 H       
  35 H35            1.4071     0.3331    -2.0331 H       
  36 H36           -1.4883    -1.8387    -2.0303 H       
  37 H37           -2.2270    -1.7484     1.0987 H       
  38 H38           -1.1800    -2.9460     1.9037 H       
  39 H39            1.2165    -2.7804     0.0704 H       
  40 H40            0.4311    -4.2908     0.5903 H       
  41 H41            0.6749    -3.9652    -1.1426 H       
  42 H42           -2.6962    -2.7508    -2.2655 H       
  43 H43           -4.6849    -6.4429    -1.4291 H       
  44 H44           -3.2011    -6.8004     0.5018 H       
  45 H45           -4.9098    -3.4709    -3.3020 H       
  46 H46           -7.7354    -6.9269    -7.2593 H       
  47 H47           -8.5625    -4.6207    -7.6653 H       
  48 H48           -7.7295    -2.7719    -6.2657 H       
@<TRIPOS>BOND
   1    1    7 1
   2    1   32 1
   3    1   33 1
   4    1   34 1
   5    2    8 2
   6    2   35 1
   7    3    4 1
   8    3    8 1
   9    3   36 1
  10    4    5 1
  11    4    9 1
  12    4   10 1
  13    5    6 1
  14    5   37 1
  15    5   38 1
  16    6    7 am
  17    6   19 2
  18    6   20 2
  19    7    8 1
  20    9   39 1
  21    9   40 1
  22    9   41 1
  23   10   11 ar
  24   10   15 ar
  25   11   12 ar
  26   11   42 1
  27   12   13 ar
  28   12   16 1
  29   13   14 ar
  30   13   43 1
  31   14   15 ar
  32   14   44 1
  33   15   21 1
  34   16   17 am
  35   16   45 1
  36   17   18 2
  37   17   22 1
  38   22   23 ar
  39   22   27 ar
  40   23   24 ar
  41   23   28 1
  42   24   25 ar
  43   24   46 1
  44   25   26 ar
  45   25   47 1
  46   26   27 ar
  47   26   48 1
  48   28   29 1
  49   28   30 1
  50   28   31 1

#	End of record

