#	Name: ASD00069095
#	Creating user name:	WinNT
#	Creation time:	15. 06. 2019 18:29

#	Modifying user name:	WinNT
#	Modification time:	15. 06. 2019 18:29

#	Program:	/corina/corina34_cracker 3.40 0067  02.08.2006

@<TRIPOS>MOLECULE
ASD00069095
  75   81    0    0    0
SMALL
NO_CHARGES


@<TRIPOS>ATOM
   1 C1            -0.4887     1.6600     0.3463 C.3     
   2 C2            -1.0565     0.3007     0.7594 C.3     
   3 C3            -0.3112    -0.2094     1.9944 C.3     
   4 C4             1.1764    -0.3558     1.6680 C.3     
   5 C5             1.7441     1.0035     1.2550 C.3     
   6 C6             0.9988     1.5136     0.0199 C.3     
   7 C7            -1.2228     2.1624    -0.8702 C.2     
   8 O8            -2.1126     1.4984    -1.3587 O.2     
   9 N9            -0.8907     3.3494    -1.4153 N.am    
  10 N10           -3.2624     5.2371    -6.0324 N.pl3   
  11 N11           -3.3035     6.6017    -5.7296 N.2     
  12 C12           -2.7849     6.8123    -4.5415 C.2     
  13 C13           -2.3663     5.5113    -4.0053 C.ar    
  14 C14           -1.7639     5.1049    -2.8128 C.ar    
  15 C15           -1.4944     3.7655    -2.6089 C.ar    
  16 C16           -1.8204     2.8255    -3.5867 C.ar    
  17 C17           -2.4086     3.2117    -4.7563 C.ar    
  18 C18           -2.6909     4.5567    -4.9854 C.ar    
  19 C19           -3.7571     4.6283    -7.2696 C.3     
  20 C20           -5.2872     4.5861    -7.2416 C.3     
  21 C21           -5.7984     4.0039    -8.5630 C.3     
  22 C22           -5.2613     4.8488    -9.7223 C.3     
  23 C23           -3.7322     4.8809    -9.6545 C.3     
  24 O24           -3.3237     5.4039    -8.3889 O.3     
  25 C25           -2.6475     8.1187    -3.8684 C.2     
  26 N26           -3.0465     9.3198    -4.3908 N.pl3   
  27 C27           -2.7441    10.2934    -3.4546 C.ar    
  28 C28           -2.1553     9.6225    -2.3679 C.ar    
  29 N29           -2.1298     8.3031    -2.6771 N.2     
  30 C30           -1.7374    10.3536    -1.2515 C.ar    
  31 C31           -1.9073    11.7253    -1.2281 C.ar    
  32 C32           -2.4917    12.3814    -2.3095 C.ar    
  33 C33           -2.9072    11.6705    -3.4151 C.ar    
  34 O34            0.0333    14.3885     1.2455 O.3     
  35 C35           -1.3465    14.6480     0.9729 C.3     
  36 C36           -1.7620    13.8924    -0.2921 C.3     
  37 N37           -1.4904    12.4588    -0.1119 N.3     
  38 C38           -0.0652    12.2297     0.1668 C.3     
  39 C39            0.3334    13.0020     1.4272 C.3     
  40 F40            1.8578    -0.8222     2.7973 F       
  41 F41            1.3359    -1.2664     0.6180 F       
  42 H42           -0.6131     2.3695     1.1644 H       
  43 H43           -2.1163     0.4050     0.9919 H       
  44 H44           -0.9322    -0.4088    -0.0587 H       
  45 H45           -0.4356     0.5001     2.8125 H       
  46 H46           -0.7157    -1.1778     2.2887 H       
  47 H47            1.6198     1.7130     2.0731 H       
  48 H48            2.8039     0.8992     1.0225 H       
  49 H49            1.1232     0.8041    -0.7982 H       
  50 H50            1.4033     2.4820    -0.2744 H       
  51 H51           -0.2336     3.9156    -0.9811 H       
  52 H52           -1.5104     5.8323    -2.0558 H       
  53 H53           -1.6047     1.7810    -3.4166 H       
  54 H54           -2.6551     2.4737    -5.5053 H       
  55 H55           -3.3670     3.6142    -7.3570 H       
  56 H56           -5.6192     3.9586    -6.4145 H       
  57 H57           -5.6771     5.5958    -7.1134 H       
  58 H58           -5.4493     2.9766    -8.6682 H       
  59 H59           -6.8882     4.0227    -8.5724 H       
  60 H60           -5.5748     4.4093   -10.6692 H       
  61 H61           -5.6508     5.8639    -9.6441 H       
  62 H62           -3.3418     3.8701    -9.7732 H       
  63 H63           -3.3463     5.5158   -10.4519 H       
  64 H64           -3.4631     9.4618    -5.2552 H       
  65 H65           -1.2844     9.8488    -0.4112 H       
  66 H66           -2.6202    13.4534    -2.2812 H       
  67 H67           -3.3591    12.1853    -4.2500 H       
  68 H68           -1.9531    14.3116     1.8136 H       
  69 H69           -1.4929    15.7176     0.8225 H       
  70 H70           -2.8268    14.0412    -0.4718 H       
  71 H71           -1.1929    14.2665    -1.1431 H       
  72 H72            0.1087    11.1650     0.3221 H       
  73 H73            0.5311    12.5773    -0.6768 H       
  74 H74            1.4019    12.8813     1.6054 H       
  75 H75           -0.2245    12.6178     2.2812 H       
@<TRIPOS>BOND
   1    1    2 1
   2    1    6 1
   3    1    7 1
   4    1   42 1
   5    2    3 1
   6    2   43 1
   7    2   44 1
   8    3    4 1
   9    3   45 1
  10    3   46 1
  11    4    5 1
  12    4   40 1
  13    4   41 1
  14    5    6 1
  15    5   47 1
  16    5   48 1
  17    6   49 1
  18    6   50 1
  19    7    8 2
  20    7    9 am
  21    9   15 1
  22    9   51 1
  23   10   11 1
  24   10   18 1
  25   10   19 1
  26   11   12 2
  27   12   13 1
  28   12   25 1
  29   13   14 ar
  30   13   18 ar
  31   14   15 ar
  32   14   52 1
  33   15   16 ar
  34   16   17 ar
  35   16   53 1
  36   17   18 ar
  37   17   54 1
  38   19   20 1
  39   19   24 1
  40   19   55 1
  41   20   21 1
  42   20   56 1
  43   20   57 1
  44   21   22 1
  45   21   58 1
  46   21   59 1
  47   22   23 1
  48   22   60 1
  49   22   61 1
  50   23   24 1
  51   23   62 1
  52   23   63 1
  53   25   26 1
  54   25   29 2
  55   26   27 1
  56   26   64 1
  57   27   28 ar
  58   27   33 ar
  59   28   29 1
  60   28   30 ar
  61   30   31 ar
  62   30   65 1
  63   31   32 ar
  64   31   37 1
  65   32   33 ar
  66   32   66 1
  67   33   67 1
  68   34   35 1
  69   34   39 1
  70   35   36 1
  71   35   68 1
  72   35   69 1
  73   36   37 1
  74   36   70 1
  75   36   71 1
  76   37   38 1
  77   38   39 1
  78   38   72 1
  79   38   73 1
  80   39   74 1
  81   39   75 1

#	End of record

