#	Name: ASD01815977
#	Creating user name:	WinNT
#	Creation time:	15. 06. 2019 19:34

#	Modifying user name:	WinNT
#	Modification time:	15. 06. 2019 19:34

#	Program:	/corina/corina34_cracker 3.40 0067  02.08.2006

@<TRIPOS>MOLECULE
ASD01815977
  44   48    0    0    0
SMALL
NO_CHARGES


@<TRIPOS>ATOM
   1 C1            -0.0167     1.3813     0.0096 C.ar    
   2 C2             0.0021    -0.0041     0.0020 C.ar    
   3 C3             1.1984    -0.6909    -0.0131 C.ar    
   4 C4             2.4015     0.0059    -0.0209 C.ar    
   5 C5             2.3790     1.4106    -0.0132 C.ar    
   6 C6             1.1663     2.0916     0.0022 C.ar    
   7 N7             3.6053    -0.6772    -0.0356 N.pl3   
   8 C8             4.7970    -0.0586    -0.0433 C.2     
   9 C9             4.9000     1.3103    -0.0373 C.2     
  10 C10            3.6670     2.1301    -0.0217 C.2     
  11 C11            5.9971     2.2729    -0.0432 C.2     
  12 N12            5.4245     3.4960    -0.0323 N.am    
  13 N13            4.0323     3.3799    -0.0195 N.2     
  14 C14            6.1264     4.7082    -0.0333 C.ar    
  15 O15            7.1914     2.0229    -0.0548 O.2     
  16 C16            3.5779    -2.1419    -0.0427 C.3     
  17 C17            3.5552    -2.6371    -1.4659 C.ar    
  18 C18            4.7416    -2.8865    -2.1299 C.ar    
  19 C19            4.7208    -3.3406    -3.4354 C.ar    
  20 C20            3.5135    -3.5457    -4.0766 C.ar    
  21 C21            2.3270    -3.2972    -3.4123 C.ar    
  22 C22            2.3478    -2.8472    -2.1054 C.ar    
  23 C23            6.5546     5.2634    -1.2317 C.ar    
  24 C24            7.2466     6.4588    -1.2297 C.ar    
  25 C25            7.5142     7.1036    -0.0359 C.ar    
  26 C26            7.0900     6.5550     1.1603 C.ar    
  27 C27            6.3912     5.3614     1.1656 C.ar    
  28 F28            5.9763     4.8253     2.3342 F       
  29 H29           -0.9602     1.9068     0.0170 H       
  30 H30           -0.9289    -0.5516     0.0083 H       
  31 H31            1.2004    -1.7709    -0.0186 H       
  32 H32            1.1506     3.1715     0.0077 H       
  33 H33            5.6983    -0.6536    -0.0540 H       
  34 H34            4.4657    -2.5244     0.4609 H       
  35 H35            2.6861    -2.4912     0.4778 H       
  36 H36            5.6849    -2.7262    -1.6289 H       
  37 H37            5.6478    -3.5348    -3.9544 H       
  38 H38            3.4972    -3.8998    -5.0968 H       
  39 H39            1.3838    -3.4571    -3.9134 H       
  40 H40            1.4208    -2.6530    -1.5863 H       
  41 H41            6.3471     4.7607    -2.1648 H       
  42 H42            7.5796     6.8905    -2.1620 H       
  43 H43            8.0561     8.0378    -0.0379 H       
  44 H44            7.3009     7.0609     2.0909 H       
@<TRIPOS>BOND
   1    1    2 ar
   2    1    6 ar
   3    1   29 1
   4    2    3 ar
   5    2   30 1
   6    3    4 ar
   7    3   31 1
   8    4    5 ar
   9    4    7 1
  10    5    6 ar
  11    5   10 1
  12    6   32 1
  13    7    8 1
  14    7   16 1
  15    8    9 2
  16    8   33 1
  17    9   10 1
  18    9   11 1
  19   10   13 2
  20   11   12 am
  21   11   15 2
  22   12   13 1
  23   12   14 1
  24   14   23 ar
  25   14   27 ar
  26   16   17 1
  27   16   34 1
  28   16   35 1
  29   17   18 ar
  30   17   22 ar
  31   18   19 ar
  32   18   36 1
  33   19   20 ar
  34   19   37 1
  35   20   21 ar
  36   20   38 1
  37   21   22 ar
  38   21   39 1
  39   22   40 1
  40   23   24 ar
  41   23   41 1
  42   24   25 ar
  43   24   42 1
  44   25   26 ar
  45   25   43 1
  46   26   27 ar
  47   26   44 1
  48   27   28 1

#	End of record

