#	Name: ASD03950096
#	Creating user name:	WinNT
#	Creation time:	15. 06. 2019 20:48

#	Modifying user name:	WinNT
#	Modification time:	15. 06. 2019 20:48

#	Program:	/corina/corina34_cracker 3.40 0067  02.08.2006

@<TRIPOS>MOLECULE
ASD03950096
  44   47    0    0    0
SMALL
NO_CHARGES


@<TRIPOS>ATOM
   1 N1            -0.0169     1.3942     0.0097 N.pl3   
   2 N2             0.0021    -0.0041     0.0020 N.2     
   3 C3             1.2311    -0.4341    -0.0120 C.2     
   4 C4             2.1093     0.7334    -0.0141 C.ar    
   5 C5             3.4967     0.8990    -0.0264 C.ar    
   6 C6             4.0411     2.1756    -0.0248 C.ar    
   7 C7             3.2112     3.2979    -0.0104 C.ar    
   8 C8             1.8299     3.1501     0.0024 C.ar    
   9 C9             1.2663     1.8606    -0.0000 C.ar    
  10 C10            0.9576     4.3398     0.0186 C.2     
  11 O11           -0.2510     4.2074     0.0298 O.2     
  12 N12            1.5005     5.5734     0.0209 N.am    
  13 N13            0.9738    -4.6789    -0.0289 N.3     
  14 C14            1.5338    -4.0597     1.1792 C.3     
  15 C15            1.1382    -2.5822     1.2269 C.3     
  16 C16            1.6687    -1.8761    -0.0239 C.3     
  17 C17            1.1088    -2.5704    -1.2685 C.3     
  18 C18            1.5053    -4.0484    -1.2439 C.3     
  19 C19            5.5152     2.3486    -0.0379 C.ar    
  20 C20            6.0688     3.6270    -0.0363 C.ar    
  21 C21            7.4423     3.7820    -0.0486 C.ar    
  22 C22            8.2665     2.6684    -0.0630 C.ar    
  23 C23            7.7202     1.3983    -0.0646 C.ar    
  24 C24            6.3497     1.2331    -0.0461 C.ar    
  25 F25            7.9815     5.0207    -0.0472 F       
  26 H26           -0.8151     1.9454     0.0166 H       
  27 H27            4.1444     0.0349    -0.0369 H       
  28 H28            3.6454     4.2867    -0.0089 H       
  29 H29            2.4646     5.6790     0.0120 H       
  30 H30            0.9269     6.3556     0.0315 H       
  31 H31            1.1402    -5.6741    -0.0355 H       
  32 H32            1.1454    -4.5684     2.0614 H       
  33 H33            2.6204    -4.1444     1.1603 H       
  34 H34            0.0520    -2.4971     1.2597 H       
  35 H35            1.5671    -2.1191     2.1156 H       
  36 H36            2.7575    -1.9263    -0.0364 H       
  37 H37            0.0222    -2.4852    -1.2750 H       
  38 H38            1.5167    -2.0991    -2.1627 H       
  39 H39            2.5920    -4.1330    -1.2514 H       
  40 H40            1.0961    -4.5488    -2.1216 H       
  41 H41            5.4262     4.4950    -0.0259 H       
  42 H42            9.3393     2.7928    -0.0733 H       
  43 H43            8.3670     0.5335    -0.0757 H       
  44 H44            5.9249     0.2402    -0.0424 H       
@<TRIPOS>BOND
   1    1    2 1
   2    1    9 1
   3    1   26 1
   4    2    3 2
   5    3    4 1
   6    3   16 1
   7    4    5 ar
   8    4    9 ar
   9    5    6 ar
  10    5   27 1
  11    6    7 ar
  12    6   19 1
  13    7    8 ar
  14    7   28 1
  15    8    9 ar
  16    8   10 1
  17   10   11 2
  18   10   12 am
  19   12   29 1
  20   12   30 1
  21   13   14 1
  22   13   18 1
  23   13   31 1
  24   14   15 1
  25   14   32 1
  26   14   33 1
  27   15   16 1
  28   15   34 1
  29   15   35 1
  30   16   17 1
  31   16   36 1
  32   17   18 1
  33   17   37 1
  34   17   38 1
  35   18   39 1
  36   18   40 1
  37   19   20 ar
  38   19   24 ar
  39   20   21 ar
  40   20   41 1
  41   21   22 ar
  42   21   25 1
  43   22   23 ar
  44   22   42 1
  45   23   24 ar
  46   23   43 1
  47   24   44 1

#	End of record

