#	Name: ASD01816600
#	Creating user name:	WinNT
#	Creation time:	15. 06. 2019 19:35

#	Modifying user name:	WinNT
#	Modification time:	15. 06. 2019 19:35

#	Program:	/corina/corina34_cracker 3.40 0067  02.08.2006

@<TRIPOS>MOLECULE
ASD01816600
  81   88    0    0    0
SMALL
NO_CHARGES


@<TRIPOS>ATOM
   1 C1            -0.0348     1.3820    -0.3217 C.ar    
   2 C2            -0.0157    -0.0028    -0.3246 C.ar    
   3 C3            -1.1871    -0.7245    -0.2078 C.ar    
   4 C4            -2.4055    -0.0666    -0.0858 C.ar    
   5 C5            -2.4295     1.3379    -0.0823 C.ar    
   6 C6            -1.2398     2.0612    -0.1946 C.ar    
   7 N7            -3.5816    -0.7892     0.0306 N.pl3   
   8 C8            -4.7865    -0.2095     0.1512 C.2     
   9 C9            -4.9327     1.1552     0.1674 C.2     
  10 C10           -3.7326     2.0146     0.0483 C.2     
  11 C11           -6.0546     2.0820     0.2810 C.2     
  12 N12           -5.5245     3.3230     0.2300 N.am    
  13 N13           -4.1361     3.2523     0.0908 N.2     
  14 C14           -6.2616     4.5116     0.3049 C.ar    
  15 O15           -7.2345     1.7934     0.3985 O.2     
  16 F16            1.1203     2.0730    -0.4369 F       
  17 C17           -6.5979     5.0450     1.5414 C.ar    
  18 C18           -7.3247     6.2180     1.6121 C.ar    
  19 C19           -7.7181     6.8612     0.4533 C.ar    
  20 C20           -7.3856     6.3339    -0.7814 C.ar    
  21 C21           -6.6535     5.1635    -0.8600 C.ar    
  22 N22           -1.2629     3.4570    -0.1908 N.3     
  23 C23           -0.4765     3.9935     0.9281 C.3     
  24 C24           -0.5247     5.4994     0.8995 C.ar    
  25 C25           -1.5230     6.1709     1.5811 C.ar    
  26 C26           -1.5697     7.5511     1.5568 C.ar    
  27 C27           -0.6131     8.2643     0.8470 C.ar    
  28 C28            0.3880     7.5872     0.1635 C.ar    
  29 C29            0.4328     6.2071     0.1963 C.ar    
  30 N30           -0.6582     9.6651     0.8200 N.pl3   
  31 N31           -1.6072    10.4720     1.4609 N.2     
  32 C32            0.2101    10.4770     0.1754 C.2     
  33 C33           -0.1789    11.7542     0.3964 C.2     
  34 C34           -1.3203    11.7230     1.2051 C.2     
  35 F35           -6.3287     4.6482    -2.0658 F       
  36 C36           -3.5072    -2.2522     0.0210 C.3     
  37 C37           -4.0784    -2.8022     1.3309 C.3     
  38 C38           -4.3253    -2.7985    -1.1525 C.3     
  39 C39           -5.7938    -2.4086    -0.9695 C.3     
  40 N40           -6.2935    -2.9588     0.2969 N.3     
  41 C41           -5.5541    -2.4122     1.4418 C.3     
  42 C42           -3.3044    -2.2140     2.5124 C.3     
  43 C43           -3.7843    -2.8477     3.7927 C.ar    
  44 C44           -3.1775    -3.9963     4.2653 C.ar    
  45 C45           -3.6177    -4.5775     5.4397 C.ar    
  46 C46           -4.6645    -4.0099     6.1418 C.ar    
  47 C47           -5.2708    -2.8608     5.6697 C.ar    
  48 C48           -4.8277    -2.2771     4.4975 C.ar    
  49 H49            0.9255    -0.5239    -0.4197 H       
  50 H50           -1.1566    -1.8040    -0.2117 H       
  51 H51           -5.6639    -0.8334     0.2375 H       
  52 H52           -6.2919     4.5434     2.4476 H       
  53 H53           -7.5863     6.6329     2.5743 H       
  54 H54           -8.2867     7.7774     0.5123 H       
  55 H55           -7.6945     6.8388    -1.6847 H       
  56 H56           -0.9373     3.8265    -1.0714 H       
  57 H57           -0.8924     3.6345     1.8695 H       
  58 H58            0.5577     3.6612     0.8376 H       
  59 H59           -2.2670     5.6156     2.1328 H       
  60 H60           -2.3498     8.0750     2.0891 H       
  61 H61            1.1332     8.1393    -0.3898 H       
  62 H62            1.2115     5.6799    -0.3348 H       
  63 H63            1.0615    10.1627    -0.4100 H       
  64 H64            0.3074    12.6410     0.0177 H       
  65 H65           -1.8703    12.5833     1.5571 H       
  66 H66           -2.4677    -2.5635    -0.0822 H       
  67 H67           -3.9867    -3.8883     1.3403 H       
  68 H68           -3.9502    -2.3768    -2.0850 H       
  69 H69           -4.2381    -3.8846    -1.1825 H       
  70 H70           -5.8819    -1.3223    -0.9535 H       
  71 H71           -6.3813    -2.8083    -1.7961 H       
  72 H72           -7.2845    -2.7965     0.3957 H       
  73 H73           -5.9675    -2.8145     2.3667 H       
  74 H74           -5.6432    -1.3259     1.4466 H       
  75 H75           -2.2403    -2.4132     2.3850 H       
  76 H76           -3.4699    -1.1375     2.5554 H       
  77 H77           -2.3596    -4.4397     3.7168 H       
  78 H78           -3.1441    -5.4753     5.8086 H       
  79 H79           -5.0090    -4.4644     7.0589 H       
  80 H80           -6.0889    -2.4175     6.2180 H       
  81 H81           -5.3013    -1.3793     4.1287 H       
@<TRIPOS>BOND
   1    1    2 ar
   2    1   16 1
   3    1    6 ar
   4    2    3 ar
   5    2   49 1
   6    3    4 ar
   7    3   50 1
   8    4    5 ar
   9    4    7 1
  10    5    6 ar
  11    5   10 1
  12    6   22 1
  13    7    8 1
  14    7   36 1
  15    8    9 2
  16    8   51 1
  17    9   10 1
  18    9   11 1
  19   10   13 2
  20   11   12 am
  21   11   15 2
  22   12   13 1
  23   12   14 1
  24   14   17 ar
  25   14   21 ar
  26   17   18 ar
  27   17   52 1
  28   18   19 ar
  29   18   53 1
  30   19   20 ar
  31   19   54 1
  32   20   21 ar
  33   20   55 1
  34   21   35 1
  35   22   23 1
  36   22   56 1
  37   23   24 1
  38   23   57 1
  39   23   58 1
  40   24   25 ar
  41   24   29 ar
  42   25   26 ar
  43   25   59 1
  44   26   27 ar
  45   26   60 1
  46   27   28 ar
  47   27   30 1
  48   28   29 ar
  49   28   61 1
  50   29   62 1
  51   30   31 1
  52   30   32 1
  53   31   34 2
  54   32   33 2
  55   32   63 1
  56   33   34 1
  57   33   64 1
  58   34   65 1
  59   36   37 1
  60   36   38 1
  61   36   66 1
  62   37   42 1
  63   37   41 1
  64   37   67 1
  65   38   39 1
  66   38   68 1
  67   38   69 1
  68   39   40 1
  69   39   70 1
  70   39   71 1
  71   40   41 1
  72   40   72 1
  73   41   73 1
  74   41   74 1
  75   42   43 1
  76   42   75 1
  77   42   76 1
  78   43   44 ar
  79   43   48 ar
  80   44   45 ar
  81   44   77 1
  82   45   46 ar
  83   45   78 1
  84   46   47 ar
  85   46   79 1
  86   47   48 ar
  87   47   80 1
  88   48   81 1

#	End of record

