#	Name: ASD02500143
#	Creating user name:	WinNT
#	Creation time:	15. 06. 2019 20:22

#	Modifying user name:	WinNT
#	Modification time:	15. 06. 2019 20:22

#	Program:	/corina/corina34_cracker 3.40 0067  02.08.2006

@<TRIPOS>MOLECULE
ASD02500143
  58   62    0    0    0
SMALL
NO_CHARGES


@<TRIPOS>ATOM
   1 N1            -5.6368     4.9736    -5.0143 N.ar    
   2 C2            -6.8956     5.2376    -5.2676 C.ar    
   3 C3            -7.8712     5.1790    -4.2746 C.ar    
   4 C4            -7.5250     4.8388    -2.9980 C.ar    
   5 C5            -6.1723     4.5555    -2.7298 C.ar    
   6 C6            -5.7413     4.1993    -1.4421 C.ar    
   7 C7            -4.4239     3.9331    -1.2231 C.ar    
   8 C8            -3.4970     4.0100    -2.2603 C.ar    
   9 C9            -3.8802     4.3523    -3.5207 C.ar    
  10 C10           -5.2313     4.6344    -3.7865 C.ar    
  11 S11           -2.6869     4.4426    -4.8140 S.o2    
  12 O12           -2.8847     5.6950    -5.4557 O.2     
  13 O13           -1.4464     4.0489    -4.2436 O.2     
  14 N14           -3.0803     3.2802    -5.9259 N.am    
  15 C15           -3.0874     1.9395    -5.5573 C.ar    
  16 C16           -4.1519     1.1227    -5.9285 C.ar    
  17 C17           -4.1618    -0.2046    -5.5652 C.ar    
  18 C18           -3.1015    -0.7324    -4.8226 C.ar    
  19 C19           -2.0341     0.0904    -4.4514 C.ar    
  20 C20           -2.0273     1.4155    -4.8226 C.ar    
  21 C21           -3.1093    -2.1547    -4.4310 C.2     
  22 O22           -2.1623    -2.8661    -4.7059 O.2     
  23 N23           -4.1661    -2.6655    -3.7686 N.am    
  24 C24           -4.1503    -4.0565    -3.2944 C.3     
  25 C25           -4.4293    -4.0632    -1.7863 C.3     
  26 N26           -5.6178    -3.2391    -1.5249 N.am    
  27 C27           -5.6335    -1.8482    -1.9991 C.3     
  28 C28           -5.3523    -1.8398    -3.5023 C.3     
  29 C29           -6.6745    -3.7500    -0.8625 C.2     
  30 O30           -6.7007    -4.9331    -0.5786 O.2     
  31 N31           -7.7369    -1.5173    -0.2973 N.pl3   
  32 C32           -7.7930    -2.8799    -0.4837 C.2     
  33 C33           -9.0921    -3.2781    -0.2495 C.2     
  34 C34           -9.8199    -2.1310     0.0818 C.2     
  35 C35           -8.9717    -1.0756     0.0451 C.2     
  36 H36           -7.1840     5.5081    -6.2726 H       
  37 H37           -8.9003     5.4027    -4.5141 H       
  38 H38           -8.2682     4.7888    -2.2159 H       
  39 H39           -6.4503     4.1370    -0.6298 H       
  40 H40           -4.0932     3.6592    -0.2321 H       
  41 H41           -2.4576     3.7949    -2.0610 H       
  42 H42           -3.3058     3.5346    -6.8344 H       
  43 H43           -4.9709     1.5311    -6.5019 H       
  44 H44           -4.9881    -0.8377    -5.8531 H       
  45 H45           -1.2137    -0.3144    -3.8774 H       
  46 H46           -1.2006     2.0506    -4.5402 H       
  47 H47           -4.9210    -4.6280    -3.8115 H       
  48 H48           -3.1726    -4.4978    -3.4875 H       
  49 H49           -4.6118    -5.0847    -1.4526 H       
  50 H50           -3.5729    -3.6493    -1.2540 H       
  51 H51           -6.6113    -1.4069    -1.8060 H       
  52 H52           -4.8628    -1.2766    -1.4820 H       
  53 H53           -5.1680    -0.8175    -3.8328 H       
  54 H54           -6.2105    -2.2499    -4.0346 H       
  55 H55           -6.9446    -0.9656    -0.3912 H       
  56 H56           -9.4754    -4.2859    -0.3110 H       
  57 H57          -10.8718    -2.0932     0.3237 H       
  58 H58           -9.2361    -0.0496     0.2544 H       
@<TRIPOS>BOND
   1    1    2 ar
   2    1   10 ar
   3    2    3 ar
   4    2   36 1
   5    3    4 ar
   6    3   37 1
   7    4    5 ar
   8    4   38 1
   9    5    6 ar
  10    5   10 ar
  11    6    7 ar
  12    6   39 1
  13    7    8 ar
  14    7   40 1
  15    8    9 ar
  16    8   41 1
  17    9   10 ar
  18    9   11 1
  19   11   12 2
  20   11   13 2
  21   11   14 am
  22   14   15 1
  23   14   42 1
  24   15   16 ar
  25   15   20 ar
  26   16   17 ar
  27   16   43 1
  28   17   18 ar
  29   17   44 1
  30   18   19 ar
  31   18   21 1
  32   19   20 ar
  33   19   45 1
  34   20   46 1
  35   21   22 2
  36   21   23 am
  37   23   24 1
  38   23   28 1
  39   24   25 1
  40   24   47 1
  41   24   48 1
  42   25   26 1
  43   25   49 1
  44   25   50 1
  45   26   27 1
  46   26   29 am
  47   27   28 1
  48   27   51 1
  49   27   52 1
  50   28   53 1
  51   28   54 1
  52   29   30 2
  53   29   32 1
  54   31   32 1
  55   31   35 1
  56   31   55 1
  57   32   33 2
  58   33   34 1
  59   33   56 1
  60   34   35 2
  61   34   57 1
  62   35   58 1

#	End of record

