#	Name: ASD05790034
#	Creating user name:	WinNT
#	Creation time:	15. 06. 2019 21:03

#	Modifying user name:	WinNT
#	Modification time:	15. 06. 2019 21:03

#	Program:	/corina/corina34_cracker 3.40 0067  02.08.2006

@<TRIPOS>MOLECULE
ASD05790034
  44   47    0    0    0
SMALL
NO_CHARGES


@<TRIPOS>ATOM
   1 C1            -0.1753     1.4739    -0.5693 C.2     
   2 C2            -0.1532    -0.0033    -0.5732 C.ar    
   3 C3             0.8987    -0.6881    -1.1876 C.ar    
   4 C4             0.9122    -2.0691    -1.1870 C.ar    
   5 C5            -0.1123    -2.7733    -0.5807 C.ar    
   6 C6            -1.1568    -2.1008     0.0289 C.ar    
   7 C7            -1.1801    -0.7216     0.0419 C.ar    
   8 O8             0.7230     2.0966    -1.1015 O.2     
   9 N9            -1.1942     2.1310     0.0193 N.am    
  10 C10           -1.1619     3.5234     0.1191 C.ar    
  11 C11           -2.3411     4.2537     0.0191 C.ar    
  12 C12           -2.3128     5.6275     0.1176 C.ar    
  13 C13           -1.0980     6.2867     0.3182 C.ar    
  14 C14            0.0844     5.5504     0.4183 C.ar    
  15 C15            0.0486     4.1764     0.3242 C.ar    
  16 O16           -2.1304     8.5747     0.3440 O.3     
  17 C17           -1.0639     7.7599     0.4238 C.2     
  18 N18            0.0112     8.4864     0.6115 N.2     
  19 C19           -0.3504     9.7861     0.6553 C.2     
  20 C20           -1.6963     9.8413     0.4872 C.2     
  21 C21           -2.5451    11.0863     0.4642 C.3     
  22 F22           -2.6407    11.5614    -0.8482 F       
  23 F23           -3.8240    10.7878     0.9464 F       
  24 F24           -1.9586    12.0656     1.2731 F       
  25 C25            2.4948    11.9439     1.8365 C.ar    
  26 C26            1.6769    10.8440     1.6825 C.ar    
  27 C27            0.5570    10.9427     0.8514 C.ar    
  28 C28            0.3161    12.1613     0.2097 C.ar    
  29 C29            1.1855    13.2113     0.4195 C.ar    
  30 N30            2.2316    13.0763     1.2124 N.ar    
  31 Cl31           2.1846     0.1946    -1.9499 Cl      
  32 H32            1.7242    -2.6003    -1.6612 H       
  33 H33           -0.0971    -3.8531    -0.5833 H       
  34 H34           -1.9535    -2.6573     0.5001 H       
  35 H35           -1.9938    -0.1987     0.5224 H       
  36 H36           -1.9499     1.6368     0.3736 H       
  37 H37           -3.2801     3.7433    -0.1364 H       
  38 H38           -3.2289     6.1941     0.0395 H       
  39 H39            1.0254     6.0573     0.5734 H       
  40 H40            0.9621     3.6061     0.4056 H       
  41 H41            3.3598    11.8787     2.4800 H       
  42 H42            1.8986     9.9201     2.1961 H       
  43 H43           -0.5380    12.2787    -0.4408 H       
  44 H44            1.0077    14.1565    -0.0717 H       
@<TRIPOS>BOND
   1    1    2 1
   2    1    8 2
   3    1    9 am
   4    2    3 ar
   5    2    7 ar
   6    3    4 ar
   7    3   31 1
   8    4    5 ar
   9    4   32 1
  10    5    6 ar
  11    5   33 1
  12    6    7 ar
  13    6   34 1
  14    7   35 1
  15    9   10 1
  16    9   36 1
  17   10   11 ar
  18   10   15 ar
  19   11   12 ar
  20   11   37 1
  21   12   13 ar
  22   12   38 1
  23   13   14 ar
  24   13   17 1
  25   14   15 ar
  26   14   39 1
  27   15   40 1
  28   16   17 1
  29   16   20 1
  30   17   18 2
  31   18   19 1
  32   19   20 2
  33   19   27 1
  34   20   21 1
  35   21   22 1
  36   21   23 1
  37   21   24 1
  38   25   26 ar
  39   25   30 ar
  40   25   41 1
  41   26   27 ar
  42   26   42 1
  43   27   28 ar
  44   28   29 ar
  45   28   43 1
  46   29   30 ar
  47   29   44 1

#	End of record

