#	Name: ASD05313171
#	Creating user name:	WinNT
#	Creation time:	15. 06. 2019 20:58

#	Modifying user name:	WinNT
#	Modification time:	15. 06. 2019 20:58

#	Program:	/corina/corina34_cracker 3.40 0067  02.08.2006

@<TRIPOS>MOLECULE
ASD05313171
  39   42    0    0    0
SMALL
NO_CHARGES


@<TRIPOS>ATOM
   1 C1            -0.0735     0.8224     1.0150 C.2     
   2 C2             0.1121    -0.6149     0.5907 C.3     
   3 N3             0.9376     1.7389     1.0409 N.pl3   
   4 N4             1.4563    -0.7154    -0.0088 N.am    
   5 C5             2.5711    -0.0362     0.6685 C.3     
   6 C6             2.3236     1.4771     0.6577 C.3     
   7 N7            -0.9008     2.6500     1.6932 N.2     
   8 N8            -1.1554     1.4179     1.4143 N.2     
   9 C9             0.3781     2.9010     1.4821 C.2     
  10 O10            2.4009     4.3675     1.7465 O.3     
  11 C11            1.0669     4.1855     1.6866 C.2     
  12 C12            0.4671     5.3980     1.8477 C.2     
  13 C13            1.4988     6.3419     2.0106 C.2     
  14 C14            2.6652     5.6692     1.9421 C.2     
  15 C15            4.0384     6.2776     2.0653 C.3     
  16 C16            1.6573    -1.4109    -1.1456 C.2     
  17 O17            2.7498    -1.4015    -1.6789 O.2     
  18 C18            0.5506    -2.1844    -1.7433 C.ar    
  19 C19            0.3192    -2.1282    -3.1208 C.ar    
  20 C20           -0.7172    -2.8544    -3.6735 C.ar    
  21 C21           -1.5268    -3.6372    -2.8637 C.ar    
  22 C22           -1.3005    -3.6954    -1.4971 C.ar    
  23 C23           -0.2653    -2.9793    -0.9354 C.ar    
  24 F24           -2.5402    -4.3452    -3.4087 F       
  25 Cl25          -1.0075    -2.7872    -5.3837 Cl      
  26 Cl26           1.3319    -1.1477    -4.1341 Cl      
  27 H27            0.0415    -1.2711     1.4582 H       
  28 H28           -0.6448    -0.8864    -0.1452 H       
  29 H29            2.6388    -0.3865     1.6985 H       
  30 H30            3.5024    -0.2564     0.1466 H       
  31 H31            2.5051     1.8688    -0.3431 H       
  32 H32            2.9952     1.9612     1.3668 H       
  33 H33           -0.5945     5.5967     1.8496 H       
  34 H34            1.3786     7.4045     2.1616 H       
  35 H35            4.7920     5.4958     1.9705 H       
  36 H36            4.1804     7.0166     1.2768 H       
  37 H37            4.1360     6.7603     3.0377 H       
  38 H38           -1.9345    -4.3063    -0.8717 H       
  39 H39           -0.0883    -3.0293     0.1289 H       
@<TRIPOS>BOND
   1    1    2 1
   2    1    3 1
   3    1    8 2
   4    2    4 1
   5    2   27 1
   6    2   28 1
   7    3    6 1
   8    3    9 1
   9    4    5 1
  10    4   16 am
  11    5    6 1
  12    5   29 1
  13    5   30 1
  14    6   31 1
  15    6   32 1
  16    7    8 1
  17    7    9 2
  18    9   11 1
  19   10   11 1
  20   10   14 1
  21   11   12 2
  22   12   13 1
  23   12   33 1
  24   13   14 2
  25   13   34 1
  26   14   15 1
  27   15   35 1
  28   15   36 1
  29   15   37 1
  30   16   17 2
  31   16   18 1
  32   18   19 ar
  33   18   23 ar
  34   19   20 ar
  35   19   26 1
  36   20   21 ar
  37   20   25 1
  38   21   22 ar
  39   21   24 1
  40   22   23 ar
  41   22   38 1
  42   23   39 1

#	End of record

