#	Name: ASD03092307
#	Creating user name:	WinNT
#	Creation time:	15. 06. 2019 20:32

#	Modifying user name:	WinNT
#	Modification time:	15. 06. 2019 20:32

#	Program:	/corina/corina34_cracker 3.40 0067  02.08.2006

@<TRIPOS>MOLECULE
ASD03092307
  59   62    0    0    0
SMALL
NO_CHARGES


@<TRIPOS>ATOM
   1 C1             0.3381     1.9841     0.1443 C.2     
   2 C2             0.5500     0.5257     0.2225 C.ar    
   3 C3             1.8484     0.0039     0.2342 C.ar    
   4 C4             2.0388    -1.3625     0.3080 C.ar    
   5 C5             0.9474    -2.2135     0.3703 C.ar    
   6 C6            -0.3414    -1.7004     0.3590 C.ar    
   7 C7            -0.5447    -0.3394     0.2910 C.ar    
   8 O8             1.2928     2.7350     0.0899 O.2     
   9 N9            -0.9137     2.4832     0.1277 N.am    
  10 F10            1.1390    -3.5489     0.4420 F       
  11 F11            2.9126     0.8339     0.1730 F       
  12 C12           -1.1240     3.9310     0.0501 C.3     
  13 S13           -4.9831     4.7249    -0.6389 S.3     
  14 C14           -4.5794     4.5770     1.0156 C.2     
  15 N15           -3.3129     4.3202     1.1493 N.2     
  16 C16           -2.6021     4.2244     0.0467 C.2     
  17 C17           -3.3086     4.4111    -1.0878 C.2     
  18 C18           -2.5481     5.2825    -4.6608 C.ar    
  19 C19           -3.0704     5.3694    -3.3885 C.ar    
  20 C20           -2.7731     4.3608    -2.4622 C.ar    
  21 C21           -1.9528     3.3032    -2.8774 C.ar    
  22 C22           -1.4745     3.2968    -4.1698 C.ar    
  23 N23           -1.7790     4.2681    -5.0105 N.ar    
  24 C24           -0.5912     2.1657    -4.6296 C.3     
  25 C25           -2.8647     6.3570    -5.6689 C.3     
  26 N26           -5.4733     4.7118     2.0623 N.3     
  27 C27           -6.8265     5.0006     1.5656 C.3     
  28 C28           -7.7690     5.2008     2.7553 C.3     
  29 O29           -7.7340     4.0371     3.5860 O.3     
  30 C30           -6.4312     3.7270     4.0877 C.3     
  31 C31           -5.4751     3.5118     2.9115 C.3     
  32 C32           -6.4986     2.4522     4.9311 C.3     
  33 C33           -9.1947     5.4222     2.2460 C.3     
  34 H34            3.0398    -1.7677     0.3168 H       
  35 H35           -1.1877    -2.3695     0.4079 H       
  36 H36           -1.5490     0.0578     0.2869 H       
  37 H37           -1.6754     1.8839     0.1671 H       
  38 H38           -0.6600     4.4122     0.9111 H       
  39 H39           -0.6753     4.3147    -0.8662 H       
  40 H40           -3.6985     6.2024    -3.1094 H       
  41 H41           -1.6989     2.5056    -2.1949 H       
  42 H42           -1.2081     1.3688    -5.0450 H       
  43 H43            0.0960     2.5289    -5.3937 H       
  44 H44           -0.0228     1.7812    -3.7828 H       
  45 H45           -2.1137     7.1447    -5.6085 H       
  46 H46           -2.8611     5.9276    -6.6708 H       
  47 H47           -3.8484     6.7758    -5.4567 H       
  48 H48           -6.8065     5.9070     0.9605 H       
  49 H49           -7.1777     4.1654     0.9596 H       
  50 H50           -7.4487     6.0690     3.3313 H       
  51 H51           -6.0719     4.5523     4.7025 H       
  52 H52           -5.8047     2.6528     2.3270 H       
  53 H53           -4.4685     3.3315     3.2889 H       
  54 H54           -6.8562     1.6273     4.3147 H       
  55 H55           -5.5054     2.2163     5.3132 H       
  56 H56           -7.1824     2.6047     5.7661 H       
  57 H57           -9.5146     4.5527     1.6719 H       
  58 H58           -9.8652     5.5647     3.0935 H       
  59 H59           -9.2200     6.3070     1.6099 H       
@<TRIPOS>BOND
   1    1    2 1
   2    1    8 2
   3    1    9 am
   4    2    3 ar
   5    2    7 ar
   6    3    4 ar
   7    3   11 1
   8    4    5 ar
   9    4   34 1
  10    5    6 ar
  11    5   10 1
  12    6    7 ar
  13    6   35 1
  14    7   36 1
  15    9   12 1
  16    9   37 1
  17   12   16 1
  18   12   38 1
  19   12   39 1
  20   13   14 1
  21   13   17 1
  22   14   15 2
  23   14   26 1
  24   15   16 1
  25   16   17 2
  26   17   20 1
  27   18   19 ar
  28   18   23 ar
  29   18   25 1
  30   19   20 ar
  31   19   40 1
  32   20   21 ar
  33   21   22 ar
  34   21   41 1
  35   22   23 ar
  36   22   24 1
  37   24   42 1
  38   24   43 1
  39   24   44 1
  40   25   45 1
  41   25   46 1
  42   25   47 1
  43   26   27 1
  44   26   31 1
  45   27   28 1
  46   27   48 1
  47   27   49 1
  48   28   29 1
  49   28   33 1
  50   28   50 1
  51   29   30 1
  52   30   31 1
  53   30   32 1
  54   30   51 1
  55   31   52 1
  56   31   53 1
  57   32   54 1
  58   32   55 1
  59   32   56 1
  60   33   57 1
  61   33   58 1
  62   33   59 1

#	End of record

