#	Name: ASD01148645
#	Creating user name:	WinNT
#	Creation time:	15. 06. 2019 19:02

#	Modifying user name:	WinNT
#	Modification time:	15. 06. 2019 19:02

#	Program:	/corina/corina34_cracker 3.40 0067  02.08.2006

@<TRIPOS>MOLECULE
ASD01148645
  67   71    0    0    0
SMALL
NO_CHARGES


@<TRIPOS>ATOM
   1 C1            -0.0651     0.5060     0.5963 C.ar    
   2 C2            -0.3262    -0.8526     0.6107 C.ar    
   3 C3            -1.6244    -1.3086     0.4662 C.ar    
   4 C4            -2.6597    -0.4067     0.3076 C.ar    
   5 C5            -2.3982     0.9507     0.2933 C.ar    
   6 C6            -1.1019     1.4071     0.4434 C.ar    
   7 C7            -3.5274     1.9335     0.1199 C.3     
   8 O8            -4.7478     1.4240     0.6948 O.3     
   9 C9            -3.2879     3.2070     0.9654 C.3     
  10 C10           -4.0365     2.8972     2.2478 C.2     
  11 N11           -4.8236     1.8967     2.0252 N.2     
  12 C12           -3.8907     3.6129     3.5268 C.ar    
  13 C13           -4.6773     3.2082     4.6895 C.ar    
  14 C14           -3.0009     4.6726     3.6368 C.ar    
  15 C15           -2.8434     5.3621     4.8258 C.ar    
  16 C16           -3.5687     5.0239     5.9605 C.ar    
  17 C17           -4.5165     3.9133     5.9057 C.ar    
  18 C18           -3.3795     5.7762     7.2130 C.2     
  19 O19           -2.8523     5.2418     8.1693 O.2     
  20 N20           -3.7908     7.0567     7.2987 N.am    
  21 C21           -5.2688     3.5368     7.0253 C.ar    
  22 C22           -5.5826     2.1413     4.6257 C.ar    
  23 C23           -3.7224     2.2842    -1.3566 C.3     
  24 F24           -4.0063     1.1201    -2.0788 F       
  25 F25           -4.7857     3.1841    -1.4856 F       
  26 F26           -2.5534     2.8690    -1.8553 F       
  27 Cl27           0.9748    -1.9847     0.8093 Cl      
  28 C28           -3.6892     7.7751     8.5715 C.3     
  29 C29           -2.3513     8.4637     8.6542 C.ar    
  30 N30           -1.3005     7.7961     9.0887 N.ar    
  31 C31           -4.2957     7.6764     6.2136 C.2     
  32 C32           -0.1104     8.3575     9.1779 C.ar    
  33 C33            0.0773     9.6777     8.8157 C.ar    
  34 C34           -1.0046    10.4121     8.3539 C.ar    
  35 C35           -2.2386     9.7862     8.2683 C.ar    
  36 O36           -4.2977     7.1121     5.1379 O.2     
  37 O37           -4.7977     8.9206     6.3218 O.3     
  38 C38           -5.3246     9.5264     5.1119 C.3     
  39 C39           -6.2962     1.7967     5.7351 C.ar    
  40 C40           -6.1417     2.4938     6.9303 C.ar    
  41 C41            1.3487     1.0035     0.7536 C.3     
  42 F42            1.3590     2.4017     0.7069 F       
  43 F43            1.8601     0.5741     1.9829 F       
  44 F44            2.1395     0.4965    -0.2832 F       
  45 C45           -1.9095    -2.7883     0.4812 C.3     
  46 F46           -3.2829    -3.0002     0.3192 F       
  47 F47           -1.2156    -3.4075    -0.5639 F       
  48 F48           -1.4948    -3.3307     1.7023 F       
  49 H49           -3.6731    -0.7625     0.1944 H       
  50 H50           -0.8983     2.4676     0.4322 H       
  51 H51           -2.2249     3.3466     1.1620 H       
  52 H52           -3.7098     4.0833     0.4732 H       
  53 H53           -2.4185     4.9649     2.7755 H       
  54 H54           -2.1408     6.1810     4.8725 H       
  55 H55           -5.1578     4.0692     7.9584 H       
  56 H56           -5.7148     1.5952     3.7034 H       
  57 H57           -4.4845     8.5178     8.6340 H       
  58 H58           -3.7859     7.0689     9.3961 H       
  59 H59            0.7270     7.7787     9.5385 H       
  60 H60            1.0541    10.1320     8.8917 H       
  61 H61           -0.8877    11.4459     8.0641 H       
  62 H62           -3.1028    10.3276     7.9127 H       
  63 H63           -6.1392     8.9146     4.7243 H       
  64 H64           -5.6966    10.5257     5.3382 H       
  65 H65           -4.5336     9.5937     4.3651 H       
  66 H66           -6.9940     0.9739     5.6849 H       
  67 H67           -6.7211     2.2040     7.7944 H       
@<TRIPOS>BOND
   1    1    2 ar
   2    1   41 1
   3    1    6 ar
   4    2    3 ar
   5    2   27 1
   6    3    4 ar
   7    3   45 1
   8    4    5 ar
   9    4   49 1
  10    5    6 ar
  11    5    7 1
  12    6   50 1
  13    7    8 1
  14    7    9 1
  15    7   23 1
  16    8   11 1
  17    9   10 1
  18    9   51 1
  19    9   52 1
  20   10   11 2
  21   10   12 1
  22   12   13 ar
  23   12   14 ar
  24   13   22 ar
  25   13   17 ar
  26   14   15 ar
  27   14   53 1
  28   15   16 ar
  29   15   54 1
  30   16   17 ar
  31   16   18 1
  32   17   21 ar
  33   18   19 2
  34   18   20 am
  35   20   28 1
  36   20   31 am
  37   21   40 ar
  38   21   55 1
  39   22   39 ar
  40   22   56 1
  41   23   24 1
  42   23   25 1
  43   23   26 1
  44   28   29 1
  45   28   57 1
  46   28   58 1
  47   29   30 ar
  48   29   35 ar
  49   30   32 ar
  50   31   36 2
  51   31   37 1
  52   32   33 ar
  53   32   59 1
  54   33   34 ar
  55   33   60 1
  56   34   35 ar
  57   34   61 1
  58   35   62 1
  59   37   38 1
  60   38   63 1
  61   38   64 1
  62   38   65 1
  63   39   40 ar
  64   39   66 1
  65   40   67 1
  66   41   42 1
  67   41   43 1
  68   41   44 1
  69   45   46 1
  70   45   47 1
  71   45   48 1

#	End of record

