#	Name: ASD05430310
#	Creating user name:	WinNT
#	Creation time:	15. 06. 2019 21:00

#	Modifying user name:	WinNT
#	Modification time:	15. 06. 2019 21:00

#	Program:	/corina/corina34_cracker 3.40 0067  02.08.2006

@<TRIPOS>MOLECULE
ASD05430310
  63   68    0    0    0
SMALL
NO_CHARGES


@<TRIPOS>ATOM
   1 C1            -0.0102     1.3702    -0.1552 C.ar    
   2 C2             0.0204    -0.0143    -0.3187 C.ar    
   3 C3             1.2363    -0.6826    -0.3844 C.ar    
   4 C4             2.4181     0.0192    -0.2877 C.ar    
   5 C5             2.3953     1.4082    -0.1236 C.ar    
   6 C6             1.1714     2.0810    -0.0580 C.ar    
   7 O7             4.8690     0.1431     0.2398 O.3     
   8 C8             4.8303     1.4989     0.0683 C.2     
   9 C9             3.6564     2.1595    -0.0198 C.2     
  10 C10            6.0903    -0.4026     0.7489 C.3     
  11 C11            6.9469     0.5521     1.5909 C.3     
  12 N12            7.1425     1.7864     0.8276 N.pl3   
  13 C13            6.1202     2.2150    -0.0167 C.2     
  14 N14           -1.1787    -0.7334    -0.4166 N.pl3   
  15 N15           -2.4810    -0.2096    -0.3690 N.2     
  16 C16           -3.3002    -1.2209    -0.4973 C.2     
  17 N17           -2.5900    -2.3413    -0.6217 N.2     
  18 C18           -1.3116    -2.0638    -0.5810 C.2     
  19 C19           -4.8046    -1.1332    -0.5029 C.3     
  20 C20            8.3609     2.5866     0.9381 C.3     
  21 C21            8.6876     3.1633    -0.4437 C.3     
  22 O22            7.5521     3.8432    -0.9691 O.3     
  23 N23            6.3117     3.1864    -0.8474 N.2     
  24 C24            8.1430     3.7101     1.9185 C.ar    
  25 C25            9.1472     4.0619     2.8009 C.ar    
  26 C26            7.7435     5.7717     3.7168 C.ar    
  27 C27            6.7411     5.4233     2.8309 C.ar    
  28 C28            6.9410     4.3927     1.9316 C.ar    
  29 C29            8.9474     5.0926     3.7002 C.ar    
  30 C30           -1.1585     3.4400     0.0717 C.3     
  31 O31           -1.2019     2.0216    -0.0970 O.3     
  32 C32            6.0922    -1.8804     1.1431 C.3     
  33 C33            6.8238    -1.4242    -0.1209 C.3     
  34 S34            7.4818     7.1212     4.8943 Du      
  35 F35            7.2491     8.3216     5.9417 F       
  36 F36            8.1173     6.2205     6.0678 F       
  37 F37            6.8463     8.0218     3.7208 F       
  38 F38            8.9427     7.7042     4.5507 F       
  39 F39            6.0209     6.5381     5.2379 F       
  40 H40            1.2555    -1.7550    -0.5110 H       
  41 H41            3.3621    -0.5032    -0.3384 H       
  42 H42            1.1492     3.1533     0.0683 H       
  43 H43            3.6427     3.2394    -0.0140 H       
  44 H44            6.4355     0.7759     2.5271 H       
  45 H45            7.9127     0.0920     1.7997 H       
  46 H46           -0.5046    -2.7774    -0.6578 H       
  47 H47           -5.1565    -0.9915    -1.5247 H       
  48 H48           -5.2238    -2.0547    -0.0988 H       
  49 H49           -5.1217    -0.2901     0.1108 H       
  50 H50            9.1838     1.9573     1.2771 H       
  51 H51            9.5193     3.8624    -0.3564 H       
  52 H52            8.9675     2.3531    -1.1169 H       
  53 H53           10.0878     3.5314     2.7879 H       
  54 H54            5.8019     5.9564     2.8413 H       
  55 H55            6.1582     4.1210     1.2389 H       
  56 H56            9.7317     5.3669     4.3901 H       
  57 H57           -0.6479     3.6794     1.0045 H       
  58 H58           -0.6198     3.8888    -0.7629 H       
  59 H59           -2.1745     3.8336     0.1021 H       
  60 H60            6.7005    -2.1722     1.9992 H       
  61 H61            5.1639    -2.4369     1.0142 H       
  62 H62            6.3769    -1.6806    -1.0815 H       
  63 H63            7.9135    -1.4159    -0.0965 H       
@<TRIPOS>BOND
   1    1    2 ar
   2    1    6 ar
   3    1   31 1
   4    2    3 ar
   5    2   14 1
   6    3    4 ar
   7    3   40 1
   8    4    5 ar
   9    4   41 1
  10    5    6 ar
  11    5    9 1
  12    6   42 1
  13    7    8 1
  14    7   10 1
  15    8    9 2
  16    8   13 1
  17    9   43 1
  18   10   11 1
  19   10   32 1
  20   10   33 1
  21   11   12 1
  22   11   44 1
  23   11   45 1
  24   12   13 1
  25   12   20 1
  26   13   23 2
  27   14   15 1
  28   14   18 1
  29   15   16 2
  30   16   17 1
  31   16   19 1
  32   17   18 2
  33   18   46 1
  34   19   47 1
  35   19   48 1
  36   19   49 1
  37   20   21 1
  38   20   24 1
  39   20   50 1
  40   21   22 1
  41   21   51 1
  42   21   52 1
  43   22   23 1
  44   24   25 ar
  45   24   28 ar
  46   25   29 ar
  47   25   53 1
  48   26   27 ar
  49   26   34 1
  50   26   29 ar
  51   27   28 ar
  52   27   54 1
  53   28   55 1
  54   29   56 1
  55   30   31 1
  56   30   57 1
  57   30   58 1
  58   30   59 1
  59   32   33 1
  60   32   60 1
  61   32   61 1
  62   33   62 1
  63   33   63 1
  64   34   35 1
  65   34   36 1
  66   34   37 1
  67   34   38 1
  68   34   39 1

#	End of record

