#	Name: ASD01812943
#	Creating user name:	WinNT
#	Creation time:	15. 06. 2019 19:29

#	Modifying user name:	WinNT
#	Modification time:	15. 06. 2019 19:29

#	Program:	/corina/corina34_cracker 3.40 0067  02.08.2006

@<TRIPOS>MOLECULE
ASD01812943
  49   53    0    0    0
SMALL
NO_CHARGES


@<TRIPOS>ATOM
   1 C1             0.1866     1.6032    -1.1408 C.ar    
   2 C2             0.2912     0.3188    -1.6358 C.ar    
   3 C3             1.4657    -0.4004    -1.4727 C.ar    
   4 C4             2.5334     0.1627    -0.8164 C.ar    
   5 C5             2.4455     1.4626    -0.3089 C.ar    
   6 C6             1.2563     2.1855    -0.4762 C.ar    
   7 C7             3.9171    -0.3333    -0.4780 C.3     
   8 N8             4.5803     0.7614     0.2398 N.am    
   9 C9             3.7269     1.7955     0.3348 C.2     
  10 C10            5.9469     0.7316     0.7669 C.3     
  11 C11            6.9020     1.2348    -0.2846 C.ar    
  12 O12            1.1518     3.4478     0.0092 O.3     
  13 O13            3.9778     2.8555     0.8751 O.2     
  14 C14            7.2046     2.5823    -0.3538 C.ar    
  15 C15            8.0795     3.0464    -1.3165 C.ar    
  16 C16            8.6554     2.1585    -2.2151 C.ar    
  17 C17            8.3496     0.8061    -2.1431 C.ar    
  18 C18            7.4783     0.3472    -1.1746 C.ar    
  19 N19            9.5435     2.6266    -3.1936 N.pl3   
  20 N20            9.9430     3.9569    -3.3757 N.2     
  21 C21           10.1707     1.8732    -4.1250 C.2     
  22 C22           10.9365     2.6990    -4.8751 C.2     
  23 C23           10.7801     3.9987    -4.3809 C.2     
  24 C24           -0.0539     4.0682    -0.0810 C.ar    
  25 C25           -0.9832     3.9262     0.9362 C.ar    
  26 C26           -2.2197     4.5654     0.8396 C.ar    
  27 C27           -2.5116     5.3442    -0.2825 C.ar    
  28 C28           -1.5784     5.4786    -1.2896 C.ar    
  29 C29           -0.3514     4.8487    -1.1900 C.ar    
  30 C30           -3.1860     4.4232     1.8868 C.1     
  31 N31           -3.9525     4.3103     2.7176 N.1     
  32 H32           -0.7299     2.1586    -1.2753 H       
  33 H33           -0.5455    -0.1282    -2.1520 H       
  34 H34            1.5412    -1.4050    -1.8619 H       
  35 H35            3.8536    -1.2152     0.1594 H       
  36 H36            4.4644    -0.5686    -1.3908 H       
  37 H37            6.0098     1.3683     1.6495 H       
  38 H38            6.2099    -0.2911     1.0372 H       
  39 H39            6.7560     3.2725     0.3453 H       
  40 H40            8.3152     4.0990    -1.3703 H       
  41 H41            8.7958     0.1131    -2.8410 H       
  42 H42            7.2437    -0.7053    -1.1151 H       
  43 H43           10.0775     0.8042    -4.2479 H       
  44 H44           11.5635     2.4057    -5.7041 H       
  45 H45           11.2634     4.8846    -4.7657 H       
  46 H46           -0.7516     3.3224     1.8012 H       
  47 H47           -3.4675     5.8405    -0.3618 H       
  48 H48           -1.8055     6.0807    -2.1569 H       
  49 H49            0.3768     4.9613    -1.9796 H       
@<TRIPOS>BOND
   1    1    2 ar
   2    1    6 ar
   3    1   32 1
   4    2    3 ar
   5    2   33 1
   6    3    4 ar
   7    3   34 1
   8    4    7 1
   9    4    5 ar
  10    5    6 ar
  11    5    9 1
  12    6   12 1
  13    7    8 1
  14    7   35 1
  15    7   36 1
  16    8    9 am
  17    8   10 1
  18    9   13 2
  19   10   11 1
  20   10   37 1
  21   10   38 1
  22   11   14 ar
  23   11   18 ar
  24   12   24 1
  25   14   15 ar
  26   14   39 1
  27   15   16 ar
  28   15   40 1
  29   16   17 ar
  30   16   19 1
  31   17   18 ar
  32   17   41 1
  33   18   42 1
  34   19   21 1
  35   19   20 1
  36   20   23 2
  37   21   22 2
  38   21   43 1
  39   22   23 1
  40   22   44 1
  41   23   45 1
  42   24   25 ar
  43   24   29 ar
  44   25   26 ar
  45   25   46 1
  46   26   27 ar
  47   26   30 1
  48   27   28 ar
  49   27   47 1
  50   28   29 ar
  51   28   48 1
  52   29   49 1
  53   30   31 3

#	End of record

