#	Name: ASD01940435
#	Creating user name:	WinNT
#	Creation time:	15. 06. 2019 20:12

#	Modifying user name:	WinNT
#	Modification time:	15. 06. 2019 20:12

#	Program:	/corina/corina34_cracker 3.40 0067  02.08.2006

@<TRIPOS>MOLECULE
ASD01940435
  21   22    0    0    0
SMALL
NO_CHARGES


@<TRIPOS>ATOM
   1 C1            -0.0167     1.3806     0.0096 C.ar    
   2 C2             0.0021    -0.0041     0.0020 C.ar    
   3 C3             1.2108    -0.6788    -0.0131 C.ar    
   4 C4             2.3973     0.0301    -0.0207 C.ar    
   5 C5             2.3774     1.4122    -0.0131 C.ar    
   6 C6             1.1707     2.0872     0.0021 C.ar    
   7 N7            -1.3082     2.1034     0.0197 N.pl3   
   8 O8            -1.3244     3.3213     0.0264 O.2     
   9 O9            -2.3548     1.4804     0.0212 O.2     
  10 F10           -1.1583    -0.6959     0.0098 F       
  11 C11            3.7133    -0.7041    -0.0367 C.3     
  12 C12            4.6498    -0.4497    -1.2195 C.3     
  13 C13            4.9858     0.1225     0.1591 C.3     
  14 H14            1.2267    -1.7587    -0.0187 H       
  15 H15            3.3050     1.9653    -0.0186 H       
  16 H16            1.1563     3.1670     0.0077 H       
  17 H17            3.6960    -1.7093     0.3844 H       
  18 H18            5.2489    -1.2875    -1.5764 H       
  19 H19            4.3141     0.2486    -1.9862 H       
  20 H20            4.8712     1.1974     0.2994 H       
  21 H21            5.8060    -0.3388     0.7092 H       
@<TRIPOS>BOND
   1    1    2 ar
   2    1    6 ar
   3    1    7 1
   4    2    3 ar
   5    2   10 1
   6    3    4 ar
   7    3   14 1
   8    4    5 ar
   9    4   11 1
  10    5    6 ar
  11    5   15 1
  12    6   16 1
  13    7    8 2
  14    7    9 2
  15   11   12 1
  16   11   13 1
  17   11   17 1
  18   12   13 1
  19   12   18 1
  20   12   19 1
  21   13   20 1
  22   13   21 1

#	End of record

