#	Name: ASD01900504
#	Creating user name:	WinNT
#	Creation time:	15. 06. 2019 19:52

#	Modifying user name:	WinNT
#	Modification time:	15. 06. 2019 19:52

#	Program:	/corina/corina34_cracker 3.40 0067  02.08.2006

@<TRIPOS>MOLECULE
ASD01900504
  29   31    0    0    0
SMALL
NO_CHARGES


@<TRIPOS>ATOM
   1 C1            -0.0151     1.5208    -0.5812 C.ar    
   2 C2             0.0527     0.4098    -1.4346 C.ar    
   3 C3             1.2640    -0.2624    -1.5737 C.ar    
   4 C4             2.3546     0.1980    -0.8593 C.ar    
   5 C5             2.2141     1.3039    -0.0333 C.ar    
   6 N6             1.0613     1.9247     0.0840 N.ar    
   7 O7            -1.1724     0.2341    -1.9675 O.3     
   8 N8            -2.0486     1.2249    -1.4690 N.2     
   9 C9            -1.4060     2.0020    -0.6427 C.2     
  10 N10           -1.9330     3.0871     0.0455 N.pl3   
  11 C11           -3.3020     3.3613    -0.0245 C.ar    
  12 C12           -3.7567     4.6671     0.1023 C.ar    
  13 C13           -5.1142     4.9353     0.0320 C.ar    
  14 C14           -6.0168     3.8981    -0.1651 C.ar    
  15 C15           -5.5621     2.5986    -0.2912 C.ar    
  16 C16           -4.2085     2.3284    -0.2268 C.ar    
  17 O17           -5.5624     6.2124     0.1563 O.3     
  18 C18           -4.5781     7.2287     0.3575 C.3     
  19 Cl19          -7.7178     4.2339    -0.2527 Cl      
  20 H20            1.3495    -1.1216    -2.2226 H       
  21 H21            3.3092    -0.3000    -0.9435 H       
  22 H22            3.0676     1.6612     0.5238 H       
  23 H23           -1.3511     3.6548     0.5747 H       
  24 H24           -3.0535     5.4723     0.2559 H       
  25 H25           -6.2658     1.7937    -0.4441 H       
  26 H26           -3.8554     1.3130    -0.3300 H       
  27 H27           -4.0246     7.0221     1.2735 H       
  28 H28           -3.8902     7.2407    -0.4879 H       
  29 H29           -5.0689     8.1985     0.4404 H       
@<TRIPOS>BOND
   1    1    2 ar
   2    1    6 ar
   3    1    9 1
   4    2    3 ar
   5    2    7 1
   6    3    4 ar
   7    3   20 1
   8    4    5 ar
   9    4   21 1
  10    5    6 ar
  11    5   22 1
  12    7    8 1
  13    8    9 2
  14    9   10 1
  15   10   11 1
  16   10   23 1
  17   11   12 ar
  18   11   16 ar
  19   12   13 ar
  20   12   24 1
  21   13   14 ar
  22   13   17 1
  23   14   15 ar
  24   14   19 1
  25   15   16 ar
  26   15   25 1
  27   16   26 1
  28   17   18 1
  29   18   27 1
  30   18   28 1
  31   18   29 1

#	End of record

