#	Name: ASD03930009
#	Creating user name:	WinNT
#	Creation time:	15. 06. 2019 20:47

#	Modifying user name:	WinNT
#	Modification time:	15. 06. 2019 20:47

#	Program:	/corina/corina34_cracker 3.40 0067  02.08.2006

@<TRIPOS>MOLECULE
ASD03930009
  31   33    0    0    0
SMALL
NO_CHARGES


@<TRIPOS>ATOM
   1 C1            -0.0164     1.3558     0.0095 C.ar    
   2 C2             0.0021    -0.0041     0.0020 C.ar    
   3 C3             1.2068    -0.6960     0.0010 C.ar    
   4 C4             2.4115    -0.0443     0.0055 C.ar    
   5 C5             2.4296     1.3576    -0.0188 C.ar    
   6 C6             1.1961     2.0644     0.0017 C.ar    
   7 C7             3.6459    -0.9034     0.0600 C.3     
   8 N8             4.7697    -0.2703    -0.6412 N.am    
   9 S9             5.1695     1.2739    -0.1500 S.o2    
  10 C10            3.6150     2.1146    -0.0829 C.ar    
  11 C11            3.5820     3.4718    -0.0901 C.ar    
  12 C12            2.3728     4.1603    -0.0399 C.ar    
  13 C13            1.1934     3.4739     0.0068 C.ar    
  14 O14            5.6429     1.1731     1.1860 O.2     
  15 O15            5.9133     1.8643    -1.2071 O.2     
  16 C16            5.4992    -0.9553    -1.7111 C.3     
  17 O17            0.0167     4.1499     0.0588 O.3     
  18 C18            0.0880     5.5772     0.0615 C.3     
  19 H19           -0.9567     1.8869     0.0168 H       
  20 H20           -0.9289    -0.5514    -0.0028 H       
  21 H21            1.1930    -1.7759    -0.0030 H       
  22 H22            3.9216    -1.0660     1.1019 H       
  23 H23            3.4317    -1.8655    -0.4054 H       
  24 H24            4.5079     4.0259    -0.1351 H       
  25 H25            2.3678     5.2403    -0.0377 H       
  26 H26            5.0720    -1.9462    -1.8654 H       
  27 H27            5.4199    -0.3780    -2.6323 H       
  28 H28            6.5483    -1.0514    -1.4317 H       
  29 H29            0.6562     5.9109     0.9298 H       
  30 H30            0.5816     5.9180    -0.8486 H       
  31 H31           -0.9193     5.9912     0.1054 H       
@<TRIPOS>BOND
   1    1    2 ar
   2    1    6 ar
   3    1   19 1
   4    2    3 ar
   5    2   20 1
   6    3    4 ar
   7    3   21 1
   8    4    5 ar
   9    4    7 1
  10    5    6 ar
  11    5   10 ar
  12    6   13 ar
  13    7    8 1
  14    7   22 1
  15    7   23 1
  16    8    9 am
  17    8   16 1
  18    9   10 1
  19    9   14 2
  20    9   15 2
  21   10   11 ar
  22   11   12 ar
  23   11   24 1
  24   12   13 ar
  25   12   25 1
  26   13   17 1
  27   16   26 1
  28   16   27 1
  29   16   28 1
  30   17   18 1
  31   18   29 1
  32   18   30 1
  33   18   31 1

#	End of record

