#	Name: ASD00338001
#	Creating user name:	WinNT
#	Creation time:	15. 06. 2019 18:35

#	Modifying user name:	WinNT
#	Modification time:	15. 06. 2019 18:35

#	Program:	/corina/corina34_cracker 3.40 0067  02.08.2006

@<TRIPOS>MOLECULE
ASD00338001
  27   26    0    0    0
SMALL
NO_CHARGES


@<TRIPOS>ATOM
   1 C1            -0.0184     1.5028     0.0103 C.2     
   2 N2             1.3897    -0.4735    -0.0138 N.am    
   3 C3             0.0021    -0.0041     0.0020 C.3     
   4 C4            -0.7241    -0.5171    -1.2431 C.3     
   5 C5            -0.8113    -2.0207    -1.1900 C.2     
   6 O6            -0.3391    -2.6226    -0.2489 O.2     
   7 N7            -1.4140    -2.6964    -2.1883 N.am    
   8 O8             1.0197     2.1211     0.0037 O.2     
   9 O9            -1.1898     2.1580     0.0194 O.3     
  10 C10            2.0717    -0.5994     1.1419 C.2     
  11 O11            1.5367    -0.3240     2.1949 O.2     
  12 C12            3.4992    -1.0823     1.1257 C.3     
  13 P13            3.5469    -2.8520     1.5606 P.3     
  14 O14            2.6578    -3.6079     0.6503 O.2     
  15 O15            5.0539    -3.3998     1.4159 O.3     
  16 O16            3.0492    -3.0450     3.0795 O.3     
  17 H17            1.8177    -0.6938    -0.8559 H       
  18 H18           -0.4983    -0.3791     0.8948 H       
  19 H19           -1.7288    -0.0959    -1.2772 H       
  20 H20           -0.1736    -0.2164    -2.1345 H       
  21 H21           -1.7916    -2.2150    -2.9410 H       
  22 H22           -1.4701    -3.6642    -2.1541 H       
  23 H23           -1.1523     3.1243     0.0245 H       
  24 H24            3.9191    -0.9415     0.1297 H       
  25 H25            4.0831    -0.5143     1.8498 H       
  26 H26            5.1543    -4.3369     1.6322 H       
  27 H27            3.5871    -2.5762     3.7322 H       
@<TRIPOS>BOND
   1    1    3 1
   2    1    8 2
   3    1    9 1
   4    2   10 am
   5    2    3 1
   6    2   17 1
   7    3    4 1
   8    3   18 1
   9    4    5 1
  10    4   19 1
  11    4   20 1
  12    5    6 2
  13    5    7 am
  14    7   21 1
  15    7   22 1
  16    9   23 1
  17   10   11 2
  18   10   12 1
  19   12   13 1
  20   12   24 1
  21   12   25 1
  22   13   14 2
  23   13   15 1
  24   13   16 1
  25   15   26 1
  26   16   27 1

#	End of record

