#	Name: ASD01910223
#	Creating user name:	WinNT
#	Creation time:	15. 06. 2019 19:55

#	Modifying user name:	WinNT
#	Modification time:	15. 06. 2019 19:55

#	Program:	/corina/corina34_cracker 3.40 0067  02.08.2006

@<TRIPOS>MOLECULE
ASD01910223
  51   55    0    0    0
SMALL
NO_CHARGES


@<TRIPOS>ATOM
   1 C1             2.7083     0.1197    -0.3462 C.2     
   2 C2             3.2319     1.5188    -0.1474 C.3     
   3 C3             3.1637     2.2827    -1.4718 C.3     
   4 C4             3.7256     3.6931    -1.2786 C.3     
   5 C5             2.8760     4.4398    -0.2454 C.3     
   6 N6             2.8172     3.6398     0.9856 N.am    
   7 C7             2.3767     2.2408     0.8986 C.3     
   8 C8             3.1608     4.1790     2.1720 C.2     
   9 C9             2.9799     3.4092     3.4075 C.2     
  10 O10            3.6211     5.3046     2.2183 O.2     
  11 N11            3.3693    -0.9936    -0.1485 N.2     
  12 C12            2.5046    -1.9881    -0.4517 C.2     
  13 N13            1.3804    -1.4256    -0.8122 N.2     
  14 O14            1.4804    -0.2183    -0.7520 O.3     
  15 C15            2.7800    -3.4448    -0.3881 C.ar    
  16 C16            1.7866    -4.3594    -0.7322 C.ar    
  17 C17            2.0470    -5.7129    -0.6721 C.ar    
  18 C18            3.2943    -6.1632    -0.2703 C.ar    
  19 C19            4.2850    -5.2572     0.0727 C.ar    
  20 C20            4.0347    -3.9019     0.0104 C.ar    
  21 F21            3.5451    -7.4895    -0.2124 F       
  22 C22            3.8549     3.3530     4.4591 C.2     
  23 N23            3.4560     2.5926     5.4429 N.2     
  24 C24            2.3055     1.9956     5.3088 C.2     
  25 S25            1.5942     2.3970     3.8074 S.3     
  26 C26            5.1623     4.1023     4.4795 C.3     
  27 C27            1.6981     1.1004     6.3166 C.ar    
  28 C28            2.3634     0.8427     7.5166 C.ar    
  29 N29            1.8163     0.0426     8.4127 N.ar    
  30 C30            0.6410    -0.5137     8.1749 C.ar    
  31 C31           -0.0228    -0.2612     6.9851 C.ar    
  32 N32            0.5123     0.5416     6.0854 N.ar    
  33 H33            4.2659     1.4751     0.1946 H       
  34 H34            3.7516     1.7575    -2.2246 H       
  35 H35            2.1266     2.3469    -1.8010 H       
  36 H36            4.7549     3.6294    -0.9257 H       
  37 H37            3.6983     4.2287    -2.2275 H       
  38 H38            3.3288     5.4078    -0.0309 H       
  39 H39            1.8686     4.5838    -0.6361 H       
  40 H40            1.3286     2.2056     0.6012 H       
  41 H41            2.5001     1.7580     1.8680 H       
  42 H42            0.8140    -4.0093    -1.0451 H       
  43 H43            1.2775    -6.4224    -0.9383 H       
  44 H44            5.2559    -5.6124     0.3853 H       
  45 H45            4.8074    -3.1964     0.2779 H       
  46 H46            5.0090     5.0887     4.9173 H       
  47 H47            5.8887     3.5494     5.0751 H       
  48 H48            5.5348     4.2108     3.4609 H       
  49 H49            3.3239     1.2968     7.7112 H       
  50 H50            0.1967    -1.1677     8.9106 H       
  51 H51           -0.9827    -0.7187     6.7960 H       
@<TRIPOS>BOND
   1    1   11 2
   2    1    2 1
   3    1   14 1
   4    2    3 1
   5    2    7 1
   6    2   33 1
   7    3    4 1
   8    3   34 1
   9    3   35 1
  10    4    5 1
  11    4   36 1
  12    4   37 1
  13    5    6 1
  14    5   38 1
  15    5   39 1
  16    6    7 1
  17    6    8 am
  18    7   40 1
  19    7   41 1
  20    8    9 1
  21    8   10 2
  22    9   22 2
  23    9   25 1
  24   11   12 1
  25   12   13 2
  26   12   15 1
  27   13   14 1
  28   15   16 ar
  29   15   20 ar
  30   16   17 ar
  31   16   42 1
  32   17   18 ar
  33   17   43 1
  34   18   19 ar
  35   18   21 1
  36   19   20 ar
  37   19   44 1
  38   20   45 1
  39   22   23 1
  40   22   26 1
  41   23   24 2
  42   24   25 1
  43   24   27 1
  44   26   46 1
  45   26   47 1
  46   26   48 1
  47   27   28 ar
  48   27   32 ar
  49   28   29 ar
  50   28   49 1
  51   29   30 ar
  52   30   31 ar
  53   30   50 1
  54   31   32 ar
  55   31   51 1

#	End of record

