#	Name: ASD01900742
#	Creating user name:	WinNT
#	Creation time:	15. 06. 2019 19:52

#	Modifying user name:	WinNT
#	Modification time:	15. 06. 2019 19:52

#	Program:	/corina/corina34_cracker 3.40 0067  02.08.2006

@<TRIPOS>MOLECULE
ASD01900742
  52   56    0    0    0
SMALL
NO_CHARGES


@<TRIPOS>ATOM
   1 C1            -0.0158     1.4087    -0.1141 C.ar    
   2 C2             0.0118     0.0196    -0.1182 C.ar    
   3 C3            -1.1602    -0.7071    -0.0668 C.ar    
   4 C4            -2.3833    -0.0521    -0.0105 C.ar    
   5 C5            -2.4090     1.3491    -0.0107 C.ar    
   6 O6            -3.5357    -0.7544     0.0513 O.3     
   7 C7            -4.7270    -0.1807    -0.1895 C.2     
   8 C8            -4.9042     1.1632    -0.2053 C.2     
   9 C9            -3.7317     2.0228     0.0366 C.2     
  10 C10           -5.8905    -1.0500    -0.4479 C.2     
  11 N11           -7.0935    -0.4914    -0.6914 N.2     
  12 C12           -8.1496    -1.2292    -0.9255 C.2     
  13 C13           -8.0382    -2.6340    -0.9255 C.2     
  14 N14           -6.8080    -3.2149    -0.6766 N.pl3   
  15 C15           -5.7296    -2.4020    -0.4419 C.2     
  16 C16           -1.2277     2.0774    -0.0543 C.ar    
  17 C17           -8.9464    -3.6549    -1.1333 C.2     
  18 C18           -8.2469    -4.8579    -1.0063 C.2     
  19 C19           -6.9520    -4.5634    -0.7293 C.2     
  20 O20            1.1469     2.1118    -0.1631 O.3     
  21 C21            2.3595     1.3576    -0.2174 C.3     
  22 C22            3.5530     2.3136    -0.2672 C.3     
  23 N23            3.6241     3.0739     0.9877 N.3     
  24 C24            4.8840     3.8262     1.0773 C.3     
  25 C25            3.4623     2.1884     2.1501 C.3     
  26 C26            3.4829     3.0273     3.4306 C.3     
  27 O27            4.7007     3.7752     3.4851 O.3     
  28 C28            4.8903     4.6486     2.3686 C.3     
  29 N29           -3.8495     3.3064     0.2797 N.2     
  30 O30           -2.7123     4.0638     0.6516 O.3     
  31 H31            0.9595    -0.4964    -0.1624 H       
  32 H32           -1.1262    -1.7866    -0.0708 H       
  33 H33           -5.8780     1.5922    -0.3901 H       
  34 H34           -9.1042    -0.7621    -1.1180 H       
  35 H35           -4.7586    -2.8321    -0.2455 H       
  36 H36           -1.2538     3.1571    -0.0509 H       
  37 H37           -9.9981    -3.5439    -1.3524 H       
  38 H38           -8.6640    -5.8486    -1.1107 H       
  39 H39           -6.1634    -5.2851    -0.5756 H       
  40 H40            2.4354     0.7275     0.6688 H       
  41 H41            2.3581     0.7312    -1.1094 H       
  42 H42            4.4715     1.7415    -0.3979 H       
  43 H43            3.4320     3.0026    -1.1031 H       
  44 H44            5.7233     3.1308     1.0845 H       
  45 H45            4.9710     4.4938     0.2201 H       
  46 H46            2.5115     1.6606     2.0760 H       
  47 H47            4.2789     1.4669     2.1745 H       
  48 H48            2.6349     3.7121     3.4308 H       
  49 H49            3.4206     2.3696     4.2976 H       
  50 H50            5.8459     5.1635     2.4675 H       
  51 H51            4.0832     5.3805     2.3379 H       
  52 H52           -2.8976     4.9996     0.8100 H       
@<TRIPOS>BOND
   1    1    2 ar
   2    1   20 1
   3    1   16 ar
   4    2    3 ar
   5    2   31 1
   6    3    4 ar
   7    3   32 1
   8    4    5 ar
   9    4    6 1
  10    5   16 ar
  11    5    9 1
  12    6    7 1
  13    7    8 2
  14    7   10 1
  15    8    9 1
  16    8   33 1
  17    9   29 2
  18   10   11 1
  19   10   15 2
  20   11   12 2
  21   12   13 1
  22   12   34 1
  23   13   14 1
  24   13   17 2
  25   14   15 1
  26   14   19 1
  27   15   35 1
  28   16   36 1
  29   17   18 1
  30   17   37 1
  31   18   19 2
  32   18   38 1
  33   19   39 1
  34   20   21 1
  35   21   22 1
  36   21   40 1
  37   21   41 1
  38   22   23 1
  39   22   42 1
  40   22   43 1
  41   23   24 1
  42   23   25 1
  43   24   28 1
  44   24   44 1
  45   24   45 1
  46   25   26 1
  47   25   46 1
  48   25   47 1
  49   26   27 1
  50   26   48 1
  51   26   49 1
  52   27   28 1
  53   28   50 1
  54   28   51 1
  55   29   30 1
  56   30   52 1

#	End of record

