#	Name: ASD01148311
#	Creating user name:	WinNT
#	Creation time:	15. 06. 2019 19:02

#	Modifying user name:	WinNT
#	Modification time:	15. 06. 2019 19:02

#	Program:	/corina/corina34_cracker 3.40 0067  02.08.2006

@<TRIPOS>MOLECULE
ASD01148311
  51   54    0    0    0
SMALL
NO_CHARGES


@<TRIPOS>ATOM
   1 C1            -0.0167     1.3781     0.0096 C.ar    
   2 C2             0.0021    -0.0041     0.0020 C.ar    
   3 C3            -1.1855    -0.7115     0.0095 C.ar    
   4 C4            -2.3919    -0.0366     0.0251 C.ar    
   5 C5            -2.4106     1.3455     0.0336 C.ar    
   6 C6            -1.2230     2.0529     0.0305 C.ar    
   7 C7            -3.7258     2.0812     0.0501 C.3     
   8 O8            -4.7305     1.3264     0.7574 O.3     
   9 C9            -3.6320     3.3642     0.9100 C.3     
  10 C10           -4.1231     2.8897     2.2645 C.2     
  11 N11           -4.7174     1.7550     2.1047 N.2     
  12 C12           -3.9503     3.6026     3.5454 C.ar    
  13 C13           -4.4544     3.0505     4.7258 C.ar    
  14 C14           -3.2777     4.8269     3.5784 C.ar    
  15 C15           -3.1167     5.4917     4.7728 C.ar    
  16 C16           -3.6257     4.9424     5.9523 C.ar    
  17 C17           -4.2933     3.7154     5.9203 C.ar    
  18 C18           -3.4529     5.6560     7.2343 C.2     
  19 O19           -2.8678     6.7210     7.2630 O.2     
  20 N20           -3.9439     5.1261     8.3721 N.am    
  21 C21           -4.1857     2.4068    -1.3724 C.3     
  22 F22           -4.3278     1.2202    -2.0997 F       
  23 F23           -5.4144     3.0740    -1.3239 F       
  24 F24           -3.2356     3.2240    -1.9942 F       
  25 C25           -3.7815     5.7967     9.5768 C.ar    
  26 N26           -4.2702     5.2617    10.6852 N.ar    
  27 N27           -3.1368     6.9533     9.5907 N.ar    
  28 C28           -2.9645     7.6180    10.7212 C.ar    
  29 C29           -3.4682     7.0896    11.8996 C.ar    
  30 C30           -4.1329     5.8742    11.8495 C.ar    
  31 C31            1.2780     2.1493     0.0014 C.3     
  32 F32            2.3536     1.2548    -0.0137 F       
  33 F33            1.3303     2.9607    -1.1371 F       
  34 F34            1.3521     2.9484     1.1473 F       
  35 C35           -1.1651    -2.2183     0.0002 C.3     
  36 F36            0.1600    -2.6666    -0.0156 F       
  37 F37           -1.8069    -2.7004     1.1460 F       
  38 F38           -1.8295    -2.6867    -1.1384 F       
  39 H39            0.9446    -0.5313    -0.0101 H       
  40 H40           -3.3198    -0.5893     0.0302 H       
  41 H41           -1.2376     3.1328     0.0372 H       
  42 H42           -2.6014     3.7135     0.9727 H       
  43 H43           -4.2825     4.1439     0.5140 H       
  44 H44           -4.9707     2.1022     4.7010 H       
  45 H45           -2.8839     5.2514     2.6667 H       
  46 H46           -2.5965     6.4379     4.7984 H       
  47 H47           -4.6868     3.2908     6.8320 H       
  48 H48           -4.4108     4.2762     8.3492 H       
  49 H49           -2.4375     8.5607    10.7262 H       
  50 H50           -3.3415     7.6111    12.8368 H       
  51 H51           -4.5377     5.4351    12.7493 H       
@<TRIPOS>BOND
   1    1    2 ar
   2    1   31 1
   3    1    6 ar
   4    2    3 ar
   5    2   39 1
   6    3    4 ar
   7    3   35 1
   8    4    5 ar
   9    4   40 1
  10    5    6 ar
  11    5    7 1
  12    6   41 1
  13    7    8 1
  14    7    9 1
  15    7   21 1
  16    8   11 1
  17    9   10 1
  18    9   42 1
  19    9   43 1
  20   10   11 2
  21   10   12 1
  22   12   13 ar
  23   12   14 ar
  24   13   17 ar
  25   13   44 1
  26   14   15 ar
  27   14   45 1
  28   15   16 ar
  29   15   46 1
  30   16   17 ar
  31   16   18 1
  32   17   47 1
  33   18   19 2
  34   18   20 am
  35   20   25 1
  36   20   48 1
  37   21   22 1
  38   21   23 1
  39   21   24 1
  40   25   26 ar
  41   25   27 ar
  42   26   30 ar
  43   27   28 ar
  44   28   29 ar
  45   28   49 1
  46   29   30 ar
  47   29   50 1
  48   30   51 1
  49   31   32 1
  50   31   33 1
  51   31   34 1
  52   35   36 1
  53   35   37 1
  54   35   38 1

#	End of record

