#	Name: ASD09200024
#	Creating user name:	WinNT
#	Creation time:	15. 06. 2019 21:21

#	Modifying user name:	WinNT
#	Modification time:	15. 06. 2019 21:21

#	Program:	/corina/corina34_cracker 3.40 0067  02.08.2006

@<TRIPOS>MOLECULE
ASD09200024
  43   46    0    0    0
SMALL
NO_CHARGES


@<TRIPOS>ATOM
   1 C1            -0.0187     1.5270     0.0104 C.3     
   2 C2             0.0021    -0.0041     0.0020 C.3     
   3 C3             0.7933    -0.5053     1.2123 C.3     
   4 N4             2.1631     0.0210     1.1552 N.3     
   5 C5             2.1708     1.4884     1.2098 C.3     
   6 C6             1.4207     2.0492    -0.0005 C.3     
   7 N7            -1.3703    -0.5122     0.0703 N.am    
   8 C8            -1.6607    -1.7357    -0.4145 C.2     
   9 S9            -0.6479    -2.7249    -1.0747 S.o     
  10 C10           -1.7846    -4.0421    -1.4183 C.2     
  11 C11           -2.9679    -3.5731    -0.9537 C.2     
  12 N12           -2.8659    -2.3173    -0.4090 N.am    
  13 C13           -4.2283    -4.3321    -1.0213 C.ar    
  14 C14           -4.2405    -5.6100    -1.5891 C.ar    
  15 C15           -5.4440    -6.3247    -1.6486 C.ar    
  16 C16           -6.6293    -5.7410    -1.1325 C.ar    
  17 C17           -6.5845    -4.4492    -0.5656 C.ar    
  18 C18           -5.4105    -3.7700    -0.5095 C.ar    
  19 C19           -5.4952    -7.6138    -2.2135 C.ar    
  20 C20           -6.6814    -8.2876    -2.2590 C.ar    
  21 C21           -7.8450    -7.7190    -1.7542 C.ar    
  22 C22           -7.8308    -6.4589    -1.1943 C.ar    
  23 H23           -0.5443     1.8890    -0.8732 H       
  24 H24           -0.5272     1.8794     0.9078 H       
  25 H25            0.4761    -0.3565    -0.9140 H       
  26 H26            0.3110    -0.1640     2.1282 H       
  27 H27            0.8222    -1.5949     1.2014 H       
  28 H28            2.7320    -0.3712     1.8905 H       
  29 H29            1.6820     1.8203     2.1258 H       
  30 H30            3.2001     1.8469     1.1972 H       
  31 H31            1.9170     1.7290    -0.9166 H       
  32 H32            1.4131     3.1380     0.0485 H       
  33 H33           -2.0699     0.0319     0.4645 H       
  34 H34           -0.4400    -2.1807    -2.2870 H       
  35 H35           -1.5816    -4.9935    -1.8874 H       
  36 H36           -3.6405    -1.8652    -0.0395 H       
  37 H37           -3.3305    -6.0420    -1.9785 H       
  38 H38           -7.4852    -4.0020    -0.1717 H       
  39 H39           -5.3861    -2.7821    -0.0739 H       
  40 H40           -4.5988    -8.0676    -2.6098 H       
  41 H41           -6.7164    -9.2758    -2.6933 H       
  42 H42           -8.7721    -8.2709    -1.8015 H       
  43 H43           -8.7413    -6.0278    -0.8051 H       
@<TRIPOS>BOND
   1    1    2 1
   2    1    6 1
   3    1   23 1
   4    1   24 1
   5    2    3 1
   6    2    7 1
   7    2   25 1
   8    3    4 1
   9    3   26 1
  10    3   27 1
  11    4    5 1
  12    4   28 1
  13    5    6 1
  14    5   29 1
  15    5   30 1
  16    6   31 1
  17    6   32 1
  18    7    8 am
  19    7   33 1
  20    8    9 2
  21    8   12 am
  22    9   10 1
  23    9   34 1
  24   10   11 2
  25   10   35 1
  26   11   12 1
  27   11   13 1
  28   12   36 1
  29   13   14 ar
  30   13   18 ar
  31   14   15 ar
  32   14   37 1
  33   15   16 ar
  34   15   19 ar
  35   16   17 ar
  36   16   22 ar
  37   17   18 ar
  38   17   38 1
  39   18   39 1
  40   19   20 ar
  41   19   40 1
  42   20   21 ar
  43   20   41 1
  44   21   22 ar
  45   21   42 1
  46   22   43 1

#	End of record

