#	Name: ASD01180240
#	Creating user name:	WinNT
#	Creation time:	15. 06. 2019 19:07

#	Modifying user name:	WinNT
#	Modification time:	15. 06. 2019 19:07

#	Program:	/corina/corina34_cracker 3.40 0067  02.08.2006

@<TRIPOS>MOLECULE
ASD01180240
  66   69    0    0    0
SMALL
NO_CHARGES


@<TRIPOS>ATOM
   1 C1            -2.2286    -1.9862     6.1584 C.2     
   2 N2            -0.0392    -4.3454     4.1973 N.am    
   3 C3            -0.4439    -3.4855     5.3122 C.3     
   4 C4            -1.8123    -2.8708     5.0116 C.3     
   5 O5            -1.5050    -1.8604     7.1178 O.2     
   6 O6            -3.4008    -1.3338     6.1117 O.3     
   7 C7             1.1402    -4.9961     4.2418 C.2     
   8 O8             1.8684    -4.8695     5.2073 O.2     
   9 C9             0.7195    -6.0147     2.0057 C.ar    
  10 C10            1.5478    -5.8622     3.1190 C.ar    
  11 C11            2.7736    -6.5438     3.1546 C.ar    
  12 C12            3.1114    -7.3362     2.0906 C.ar    
  13 C13            2.2357    -7.4421     1.0119 C.ar    
  14 N14            1.0825    -6.7869     1.0032 N.ar    
  15 N15            2.5743    -8.2423    -0.0662 N.pl3   
  16 C16            3.8965    -8.8703    -0.1256 C.3     
  17 C17            3.8143   -12.4936     1.9654 C.ar    
  18 N18            4.8786   -11.7096     2.0704 N.ar    
  19 C19            4.9365   -10.5587     1.4228 C.ar    
  20 C20            3.8670   -10.1754     0.6273 C.ar    
  21 C21            2.7697   -11.0190     0.5399 C.ar    
  22 N22            2.7755   -12.1565     1.2134 N.ar    
  23 C23            3.7876   -13.7807     2.7019 C.ar    
  24 C24            2.6785   -14.6191     2.6051 C.ar    
  25 C25            2.6592   -15.8156     3.2926 C.ar    
  26 C26            3.7377   -16.1830     4.0771 C.ar    
  27 C27            4.8409   -15.3546     4.1772 C.ar    
  28 C28            4.8740   -14.1589     3.4889 C.ar    
  29 C29            3.7104   -17.4906     4.8258 C.3     
  30 F30            4.2497   -18.5000     4.0212 F       
  31 F31            4.4670   -17.3733     5.9967 F       
  32 F32            2.3892   -17.8122     5.1546 F       
  33 C33            4.2717    -9.1321    -1.5856 C.3     
  34 C34            4.2296    -7.8172    -2.3667 C.3     
  35 C35            4.6048    -8.0790    -3.8267 C.3     
  36 C36            6.0158    -8.6667    -3.8932 C.3     
  37 C37            6.0579    -9.9816    -3.1121 C.3     
  38 C38            5.6827    -9.7198    -1.6521 C.3     
  39 H39           -0.6201    -4.4465     3.4271 H       
  40 H40           -0.5045    -4.0783     6.2249 H       
  41 H41            0.2905    -2.6908     5.4433 H       
  42 H42           -2.5468    -3.6655     4.8805 H       
  43 H43           -1.7518    -2.2780     4.0989 H       
  44 H44           -3.6246    -0.7783     6.8708 H       
  45 H45           -0.2285    -5.4987     1.9685 H       
  46 H46            3.4358    -6.4454     4.0021 H       
  47 H47            4.0481    -7.8739     2.0872 H       
  48 H48            1.9360    -8.3870    -0.7822 H       
  49 H49            4.6344    -8.2070     0.3258 H       
  50 H50            5.8059    -9.9243     1.5126 H       
  51 H51            1.9208   -10.7501    -0.0712 H       
  52 H52            1.8357   -14.3329     1.9935 H       
  53 H53            1.8003   -16.4661     3.2184 H       
  54 H54            5.6799   -15.6461     4.7917 H       
  55 H55            5.7380   -13.5152     3.5637 H       
  56 H56            3.5637    -9.8367    -2.0219 H       
  57 H57            3.2243    -7.3985    -2.3193 H       
  58 H58            4.9376    -7.1126    -1.9303 H       
  59 H59            3.8968    -8.7836    -4.2630 H       
  60 H60            4.5748    -7.1422    -4.3831 H       
  61 H61            6.2831    -8.8532    -4.9333 H       
  62 H62            6.7238    -7.9621    -3.4568 H       
  63 H63            5.3499   -10.6862    -3.5484 H       
  64 H64            7.0632   -10.4004    -3.1594 H       
  65 H65            6.3907    -9.0152    -1.2158 H       
  66 H66            5.7127   -10.6566    -1.0956 H       
@<TRIPOS>BOND
   1    1    4 1
   2    1    5 2
   3    1    6 1
   4    2    3 1
   5    2    7 am
   6    2   39 1
   7    3    4 1
   8    3   40 1
   9    3   41 1
  10    4   42 1
  11    4   43 1
  12    6   44 1
  13    7    8 2
  14    7   10 1
  15    9   10 ar
  16    9   14 ar
  17    9   45 1
  18   10   11 ar
  19   11   12 ar
  20   11   46 1
  21   12   13 ar
  22   12   47 1
  23   13   14 ar
  24   13   15 1
  25   15   16 1
  26   15   48 1
  27   16   20 1
  28   16   33 1
  29   16   49 1
  30   17   18 ar
  31   17   22 ar
  32   17   23 1
  33   18   19 ar
  34   19   20 ar
  35   19   50 1
  36   20   21 ar
  37   21   22 ar
  38   21   51 1
  39   23   24 ar
  40   23   28 ar
  41   24   25 ar
  42   24   52 1
  43   25   26 ar
  44   25   53 1
  45   26   27 ar
  46   26   29 1
  47   27   28 ar
  48   27   54 1
  49   28   55 1
  50   29   30 1
  51   29   31 1
  52   29   32 1
  53   33   34 1
  54   33   38 1
  55   33   56 1
  56   34   35 1
  57   34   57 1
  58   34   58 1
  59   35   36 1
  60   35   59 1
  61   35   60 1
  62   36   37 1
  63   36   61 1
  64   36   62 1
  65   37   38 1
  66   37   63 1
  67   37   64 1
  68   38   65 1
  69   38   66 1

#	End of record

