#	Name: ASD03740005
#	Creating user name:	WinNT
#	Creation time:	15. 06. 2019 20:46

#	Modifying user name:	WinNT
#	Modification time:	15. 06. 2019 20:46

#	Program:	/corina/corina34_cracker 3.40 0067  02.08.2006

@<TRIPOS>MOLECULE
ASD03740005
  55   59    0    0    0
SMALL
NO_CHARGES


@<TRIPOS>ATOM
   1 C1            -0.0165     1.3871     0.0026 C.ar    
   2 C2            -1.1450     1.9246     0.6147 C.ar    
   3 C3            -2.3346     1.2296     0.6223 C.ar    
   4 C4            -2.4177    -0.0198     0.0155 C.ar    
   5 C5            -1.2812    -0.5627    -0.6022 C.ar    
   6 C6            -0.0837     0.1478    -0.6106 C.ar    
   7 N7            -3.4617    -0.9195    -0.1248 N.pl3   
   8 C8            -3.0393    -2.0390    -0.8189 C.ar    
   9 C9            -1.6849    -1.8735    -1.1438 C.ar    
  10 C10           -3.6963    -3.2021    -1.2099 C.ar    
  11 C11           -3.0168    -4.1767    -1.9082 C.ar    
  12 C12           -1.6778    -4.0115    -2.2280 C.ar    
  13 C13           -1.0104    -2.8664    -1.8505 C.ar    
  14 C14           -4.8184    -0.7150     0.3890 C.3     
  15 C15           -5.6662    -0.0142    -0.6745 C.3     
  16 N16            1.1877     2.1038     0.0020 N.am    
  17 C17            2.3621     1.4483     0.0890 C.2     
  18 C18            3.6590     2.2063    -0.0324 C.3     
  19 O19            2.3753     0.2483     0.2650 O.2     
  20 S20            5.0473     1.0558     0.1256 S.3     
  21 C21            6.3952     2.1770    -0.0496 C.2     
  22 N22            7.7240     1.8588    -0.0133 N.pl3   
  23 C23            8.3954     3.0481    -0.1936 C.2     
  24 N24            7.4847     3.9878    -0.3246 N.2     
  25 N25            6.3097     3.4736    -0.2450 N.2     
  26 C26            9.8545     3.2321    -0.2322 C.2     
  27 C27            8.3115     0.5304     0.1776 C.3     
  28 C28            8.5053    -0.1418    -1.1832 C.3     
  29 O29           10.7761     2.3380     0.1770 O.3     
  30 C30           12.0052     2.8477    -0.0078 C.2     
  31 C31           11.8868     4.0804    -0.5401 C.2     
  32 C32           10.5101     4.3341    -0.6935 C.2     
  33 H33           -1.0876     2.8939     1.0876 H       
  34 H34           -3.2043     1.6553     1.1006 H       
  35 H35            0.7914    -0.2700    -1.0862 H       
  36 H36           -4.7390    -3.3411    -0.9656 H       
  37 H37           -3.5317    -5.0773    -2.2086 H       
  38 H38           -1.1561    -4.7828    -2.7750 H       
  39 H39            0.0325    -2.7397    -2.1010 H       
  40 H40           -5.2642    -1.6796     0.6315 H       
  41 H41           -4.7778    -0.0975     1.2863 H       
  42 H42           -6.6756     0.1379    -0.2922 H       
  43 H43           -5.2203     0.9504    -0.9171 H       
  44 H44           -5.7068    -0.6317    -1.5718 H       
  45 H45            1.1761     3.0717    -0.0610 H       
  46 H46            3.7030     2.6976    -1.0044 H       
  47 H47            3.7168     2.9561     0.7566 H       
  48 H48            9.2763     0.6279     0.6753 H       
  49 H49            7.6458    -0.0766     0.7911 H       
  50 H50            8.9424    -1.1302    -1.0412 H       
  51 H51            7.5405    -0.2393    -1.6809 H       
  52 H52            9.1710     0.4651    -1.7967 H       
  53 H53           12.9345     2.3518     0.2307 H       
  54 H54           12.6954     4.7461    -0.8034 H       
  55 H55           10.0607     5.2314    -1.0927 H       
@<TRIPOS>BOND
   1    1    2 ar
   2    1   16 1
   3    1    6 ar
   4    2    3 ar
   5    2   33 1
   6    3    4 ar
   7    3   34 1
   8    4    5 ar
   9    4    7 1
  10    5    6 ar
  11    5    9 1
  12    6   35 1
  13    7    8 1
  14    7   14 1
  15    8    9 ar
  16    8   10 ar
  17    9   13 ar
  18   10   11 ar
  19   10   36 1
  20   11   12 ar
  21   11   37 1
  22   12   13 ar
  23   12   38 1
  24   13   39 1
  25   14   15 1
  26   14   40 1
  27   14   41 1
  28   15   42 1
  29   15   43 1
  30   15   44 1
  31   16   17 am
  32   16   45 1
  33   17   18 1
  34   17   19 2
  35   18   20 1
  36   18   46 1
  37   18   47 1
  38   20   21 1
  39   21   22 1
  40   21   25 2
  41   22   23 1
  42   22   27 1
  43   23   24 2
  44   23   26 1
  45   24   25 1
  46   26   29 1
  47   26   32 2
  48   27   28 1
  49   27   48 1
  50   27   49 1
  51   28   50 1
  52   28   51 1
  53   28   52 1
  54   29   30 1
  55   30   31 2
  56   30   53 1
  57   31   32 1
  58   31   54 1
  59   32   55 1

#	End of record

