#	Name: ASD05740259
#	Creating user name:	WinNT
#	Creation time:	15. 06. 2019 21:03

#	Modifying user name:	WinNT
#	Modification time:	15. 06. 2019 21:03

#	Program:	/corina/corina34_cracker 3.40 0067  02.08.2006

@<TRIPOS>MOLECULE
ASD05740259
  60   63    0    0    0
SMALL
NO_CHARGES


@<TRIPOS>ATOM
   1 C1            -0.2584     0.9300     1.1254 C.ar    
   2 C2            -0.1589    -0.3082     0.4958 C.ar    
   3 N3             0.7979     1.4876     1.6993 N.ar    
   4 C4             1.9773     0.9009     1.6994 C.ar    
   5 C5             2.1545    -0.3386     1.0889 C.ar    
   6 C6             1.0592    -0.9569     0.4732 C.ar    
   7 C7             3.4836    -0.9938     1.0911 C.ar    
   8 C8             4.5526    -0.4288     1.7936 C.ar    
   9 N9             3.6771    -2.1323     0.4287 N.ar    
  10 C10            4.8638    -2.7191     0.4294 C.ar    
  11 N11            5.8952    -2.2032     1.0823 N.ar    
  12 C12            5.7742    -1.0762     1.7666 C.ar    
  13 N13            5.0316    -3.9028    -0.2698 N.pl3   
  14 N14           -1.4782     1.5910     1.1472 N.pl3   
  15 C15            6.3037    -4.4804    -0.3741 C.ar    
  16 C16            6.4401    -5.8623    -0.3833 C.ar    
  17 C17            7.4276    -3.6711    -0.4741 C.ar    
  18 C18            8.6814    -4.2403    -0.5769 C.ar    
  19 C19            8.8184    -5.6223    -0.5804 C.ar    
  20 C20            7.6938    -6.4317    -0.4857 C.ar    
  21 N21           10.0891    -6.1993    -0.6852 N.3     
  22 C22           11.3863    -8.2572    -0.9666 C.3     
  23 N23           12.3546    -7.6800    -0.0220 N.am    
  24 C24           12.4023    -6.2167     0.1185 C.3     
  25 C25           10.9803    -5.7056     0.3731 C.3     
  26 C26           10.0043    -7.6657    -0.6693 C.3     
  27 C27           -2.6507     0.9859     0.5105 C.3     
  28 C28           -3.8566     1.9127     0.6769 C.3     
  29 N29           -5.0323     1.3060     0.0385 N.3     
  30 C30           13.1768    -8.4710     0.6956 C.2     
  31 C31           14.2471    -7.8573     1.5610 C.3     
  32 O32           13.0553    -9.6766     0.6448 O.2     
  33 H33           -1.0248    -0.7557     0.0308 H       
  34 H34            2.8155     1.3860     2.1774 H       
  35 H35            1.1652    -1.9179    -0.0079 H       
  36 H36            4.4271     0.4918     2.3442 H       
  37 H37            6.6217    -0.6647     2.2947 H       
  38 H38            4.2684    -4.3319    -0.6872 H       
  39 H39           -1.5546     2.4537     1.5840 H       
  40 H40            5.5655    -6.4917    -0.3101 H       
  41 H41            7.3211    -2.5964    -0.4717 H       
  42 H42            9.5555    -3.6108    -0.6550 H       
  43 H43            7.8003    -7.5064    -0.4881 H       
  44 H44           11.6785    -8.0101    -1.9873 H       
  45 H45           11.3554    -9.3398    -0.8436 H       
  46 H46           13.0432    -5.9502     0.9590 H       
  47 H47           12.7921    -5.7734    -0.7978 H       
  48 H48           10.9796    -4.6156     0.3701 H       
  49 H49           10.6315    -6.0672     1.3404 H       
  50 H50            9.6691    -8.0001     0.3125 H       
  51 H51            9.2957    -7.9973    -1.4283 H       
  52 H52           -2.4512     0.8362    -0.5506 H       
  53 H53           -2.8634     0.0251     0.9792 H       
  54 H54           -4.0561     2.0624     1.7380 H       
  55 H55           -3.6439     2.8735     0.2081 H       
  56 H56           -5.2117     0.3857     0.4113 H       
  57 H57           -5.8426     1.8994     0.1347 H       
  58 H58           14.1482    -6.7719     1.5463 H       
  59 H59           14.1385    -8.2181     2.5838 H       
  60 H60           15.2286    -8.1380     1.1789 H       
@<TRIPOS>BOND
   1    1    2 ar
   2    1    3 ar
   3    1   14 1
   4    2    6 ar
   5    2   33 1
   6    3    4 ar
   7    4    5 ar
   8    4   34 1
   9    5    6 ar
  10    5    7 1
  11    6   35 1
  12    7    8 ar
  13    7    9 ar
  14    8   12 ar
  15    8   36 1
  16    9   10 ar
  17   10   11 ar
  18   10   13 1
  19   11   12 ar
  20   12   37 1
  21   13   15 1
  22   13   38 1
  23   14   27 1
  24   14   39 1
  25   15   16 ar
  26   15   17 ar
  27   16   20 ar
  28   16   40 1
  29   17   18 ar
  30   17   41 1
  31   18   19 ar
  32   18   42 1
  33   19   20 ar
  34   19   21 1
  35   20   43 1
  36   21   26 1
  37   21   25 1
  38   22   23 1
  39   22   26 1
  40   22   44 1
  41   22   45 1
  42   23   24 1
  43   23   30 am
  44   24   25 1
  45   24   46 1
  46   24   47 1
  47   25   48 1
  48   25   49 1
  49   26   50 1
  50   26   51 1
  51   27   28 1
  52   27   52 1
  53   27   53 1
  54   28   29 1
  55   28   54 1
  56   28   55 1
  57   29   56 1
  58   29   57 1
  59   30   31 1
  60   30   32 2
  61   31   58 1
  62   31   59 1
  63   31   60 1

#	End of record

