#	Name: ASD01910241
#	Creating user name:	WinNT
#	Creation time:	15. 06. 2019 19:55

#	Modifying user name:	WinNT
#	Modification time:	15. 06. 2019 19:55

#	Program:	/corina/corina34_cracker 3.40 0067  02.08.2006

@<TRIPOS>MOLECULE
ASD01910241
  44   47    0    0    0
SMALL
NO_CHARGES


@<TRIPOS>ATOM
   1 C1             2.7918     0.1084    -0.3416 C.2     
   2 C2             3.2925     1.5155    -0.1410 C.3     
   3 C3             3.2248     2.2757    -1.4676 C.3     
   4 C4             3.7637     3.6947    -1.2724 C.3     
   5 C5             2.8938     4.4307    -0.2484 C.3     
   6 N6             2.8360     3.6324     0.9837 N.am    
   7 C7             2.4173     2.2268     0.8957 C.3     
   8 C8             3.1608     4.1790     2.1720 C.2     
   9 C9             2.9800     3.4098     3.4066 C.2     
  10 O10            3.6042     5.3114     2.2200 O.2     
  11 N11            3.4676    -0.9945    -0.1356 N.2     
  12 C12            2.6207    -2.0024    -0.4444 C.2     
  13 N13            1.4914    -1.4575    -0.8162 N.2     
  14 O14            1.5728    -0.2488    -0.7576 O.3     
  15 C15            2.9173    -3.4547    -0.3753 C.ar    
  16 C16            1.9408    -4.3848    -0.7263 C.ar    
  17 C17            2.2209    -5.7341    -0.6610 C.ar    
  18 C18            3.4712    -6.1649    -0.2471 C.ar    
  19 C19            4.4451    -5.2434     0.1028 C.ar    
  20 C20            4.1751    -3.8922     0.0354 C.ar    
  21 F21            3.7413    -7.4871    -0.1842 F       
  22 C22            3.8631     3.3636     4.4483 C.2     
  23 C23            3.4422     2.5621     5.4828 C.2     
  24 C24            2.2560     1.9714     5.2969 C.2     
  25 S25            1.5887     2.4044     3.7875 S.3     
  26 C26            5.1688     4.1161     4.4616 C.3     
  27 H27            4.3240     1.4881     0.2103 H       
  28 H28            3.8272     1.7580    -2.2140 H       
  29 H29            2.1899     2.3237    -1.8062 H       
  30 H30            4.7907     3.6473    -0.9101 H       
  31 H31            3.7370     4.2280    -2.2226 H       
  32 H32            3.3302     5.4058    -0.0319 H       
  33 H33            1.8880     4.5588    -0.6484 H       
  34 H34            1.3726     2.1752     0.5891 H       
  35 H35            2.5392     1.7477     1.8672 H       
  36 H36            0.9659    -4.0499    -1.0487 H       
  37 H37            1.4646    -6.4556    -0.9326 H       
  38 H38            5.4183    -5.5834     0.4249 H       
  39 H39            4.9347    -3.1746     0.3083 H       
  40 H40            4.0264     2.4193     6.3799 H       
  41 H41            1.7822     1.3120     6.0090 H       
  42 H42            5.0148     5.1031     4.8978 H       
  43 H43            5.8990     3.5663     5.0554 H       
  44 H44            5.5368     4.2232     3.4412 H       
@<TRIPOS>BOND
   1    1   11 2
   2    1    2 1
   3    1   14 1
   4    2    3 1
   5    2    7 1
   6    2   27 1
   7    3    4 1
   8    3   28 1
   9    3   29 1
  10    4    5 1
  11    4   30 1
  12    4   31 1
  13    5    6 1
  14    5   32 1
  15    5   33 1
  16    6    7 1
  17    6    8 am
  18    7   34 1
  19    7   35 1
  20    8    9 1
  21    8   10 2
  22    9   22 2
  23    9   25 1
  24   11   12 1
  25   12   13 2
  26   12   15 1
  27   13   14 1
  28   15   16 ar
  29   15   20 ar
  30   16   17 ar
  31   16   36 1
  32   17   18 ar
  33   17   37 1
  34   18   19 ar
  35   18   21 1
  36   19   20 ar
  37   19   38 1
  38   20   39 1
  39   22   23 1
  40   22   26 1
  41   23   24 2
  42   23   40 1
  43   24   25 1
  44   24   41 1
  45   26   42 1
  46   26   43 1
  47   26   44 1

#	End of record

