#	Name: ASD01900867
#	Creating user name:	WinNT
#	Creation time:	15. 06. 2019 19:52

#	Modifying user name:	WinNT
#	Modification time:	15. 06. 2019 19:52

#	Program:	/corina/corina34_cracker 3.40 0067  02.08.2006

@<TRIPOS>MOLECULE
ASD01900867
  62   66    0    0    0
SMALL
NO_CHARGES


@<TRIPOS>ATOM
   1 C1             3.7436     0.5104     0.8410 C.ar    
   2 C2             4.3966    -0.7029     0.7769 C.ar    
   3 C3             5.7338    -0.7639     0.4172 C.ar    
   4 C4             6.4350     0.3896     0.1227 C.ar    
   5 C5             5.7951     1.6160     0.1844 C.ar    
   6 C6             4.4362     1.6806     0.5397 C.ar    
   7 N7             6.4630     2.8047    -0.0879 N.pl3   
   8 C8             5.6980     3.9415    -0.6125 C.3     
   9 N9             4.4338     4.0796     0.1116 N.am    
  10 C10            3.7842     3.0008     0.5925 C.2     
  11 C11            3.8898     5.3549     0.3093 C.ar    
  12 C12            4.4092     6.1870     1.2922 C.ar    
  13 C13            3.8723     7.4442     1.4866 C.ar    
  14 C14            2.8142     7.8761     0.7002 C.ar    
  15 C15            2.2947     7.0454    -0.2819 C.ar    
  16 C16            2.8344     5.7900    -0.4813 C.ar    
  17 O17            2.2856     9.1140     0.8925 O.3     
  18 O18            2.6695     3.1159     1.0651 O.2     
  19 C19            6.4288    -2.0992     0.3473 C.3     
  20 C20            1.2061     9.4983     0.0387 C.3     
  21 C21            6.5201     5.2233    -0.4494 C.3     
  22 C22            5.4116     3.7161    -2.0999 C.3     
  23 C23            4.6720     4.9329    -2.6608 C.3     
  24 N24            5.4955     6.1350    -2.4791 N.3     
  25 C25            5.7480     6.3971    -1.0565 C.3     
  26 C26            4.8774     7.2994    -3.1273 C.3     
  27 C27            5.6946     8.5309    -2.8326 C.ar    
  28 C28            6.7378     8.8819    -3.6709 C.ar    
  29 C29            7.4896    10.0082    -3.4074 C.ar    
  30 C30            7.1956    10.7945    -2.2917 C.ar    
  31 C31            6.1414    10.4344    -1.4499 C.ar    
  32 C32            5.3944     9.3085    -1.7282 C.ar    
  33 C33            7.9721    11.9647    -2.0117 C.1     
  34 F34            0.1245     8.6333     0.2365 F       
  35 F35            0.8169    10.8079     0.3397 F       
  36 F36            1.6199     9.4298    -1.2959 F       
  37 N37            8.5880    12.8930    -1.7896 N.1     
  38 F38            5.5258    -3.1131     0.6849 F       
  39 F39            6.9030    -2.3107    -0.9517 F       
  40 F40            7.5026    -2.1136     1.2439 F       
  41 H41            2.7007     0.5523     1.1186 H       
  42 H42            3.8620    -1.6122     1.0092 H       
  43 H43            7.4776     0.3350    -0.1540 H       
  44 H44            7.4175     2.8812     0.0664 H       
  45 H45            5.2327     5.8507     1.9047 H       
  46 H46            4.2759     8.0913     2.2512 H       
  47 H47            1.4709     7.3822    -0.8937 H       
  48 H48            2.4330     5.1453    -1.2491 H       
  49 H49            6.6950     5.4115     0.6099 H       
  50 H50            7.4751     5.1112    -0.9627 H       
  51 H51            6.3516     3.5826    -2.6354 H       
  52 H52            4.7934     2.8266    -2.2208 H       
  53 H53            4.4785     4.7824    -3.7229 H       
  54 H54            3.7261     5.0576    -2.1337 H       
  55 H55            4.7983     6.5158    -0.5349 H       
  56 H56            6.3350     7.3098    -0.9540 H       
  57 H57            4.8393     7.1379    -4.2046 H       
  58 H58            3.8660     7.4343    -2.7441 H       
  59 H59            6.9643     8.2726    -4.5334 H       
  60 H60            8.3039    10.2808    -4.0624 H       
  61 H61            5.9089    11.0380    -0.5850 H       
  62 H62            4.5761     9.0310    -1.0803 H       
@<TRIPOS>BOND
   1    1    2 ar
   2    1    6 ar
   3    1   41 1
   4    2    3 ar
   5    2   42 1
   6    3    4 ar
   7    3   19 1
   8    4    5 ar
   9    4   43 1
  10    5    7 1
  11    5    6 ar
  12    6   10 1
  13    7    8 1
  14    7   44 1
  15    8    9 1
  16    8   22 1
  17    8   21 1
  18    9   10 am
  19    9   11 1
  20   10   18 2
  21   11   12 ar
  22   11   16 ar
  23   12   13 ar
  24   12   45 1
  25   13   14 ar
  26   13   46 1
  27   14   15 ar
  28   14   17 1
  29   15   16 ar
  30   15   47 1
  31   16   48 1
  32   17   20 1
  33   19   38 1
  34   19   39 1
  35   19   40 1
  36   20   34 1
  37   20   35 1
  38   20   36 1
  39   21   25 1
  40   21   49 1
  41   21   50 1
  42   22   23 1
  43   22   51 1
  44   22   52 1
  45   23   24 1
  46   23   53 1
  47   23   54 1
  48   24   25 1
  49   24   26 1
  50   25   55 1
  51   25   56 1
  52   26   27 1
  53   26   57 1
  54   26   58 1
  55   27   28 ar
  56   27   32 ar
  57   28   29 ar
  58   28   59 1
  59   29   30 ar
  60   29   60 1
  61   30   31 ar
  62   30   33 1
  63   31   32 ar
  64   31   61 1
  65   32   62 1
  66   33   37 3

#	End of record

