#	Name: ASD03090028
#	Creating user name:	WinNT
#	Creation time:	15. 06. 2019 20:28

#	Modifying user name:	WinNT
#	Modification time:	15. 06. 2019 20:28

#	Program:	/corina/corina34_cracker 3.40 0067  02.08.2006

@<TRIPOS>MOLECULE
ASD03090028
  50   52    0    0    0
SMALL
NO_CHARGES


@<TRIPOS>ATOM
   1 C1            -0.0509     1.3984    -0.2459 C.3     
   2 C2             0.1256    -0.0932     0.0458 C.3     
   3 C3             0.6284    -0.8029    -1.2130 C.3     
   4 C4             1.9714    -0.2032    -1.6346 C.3     
   5 C5             1.7948     1.2883    -1.9262 C.3     
   6 C6             1.2920     1.9981    -0.6675 C.3     
   7 N7             1.0992    -0.2675     1.1265 N.am    
   8 C8             2.3716    -0.9444     0.8641 C.3     
   9 C9             0.6862    -0.1074     5.6230 C.ar    
  10 C10            1.3216     0.7184     4.7148 C.ar    
  11 C11            1.8790     0.1452     3.4374 C.3     
  12 C12            0.8241     0.1948     2.3623 C.2     
  13 C13            0.1744     0.4171     6.7953 C.ar    
  14 C14            0.2982     1.7690     7.0599 C.ar    
  15 C15            0.9345     2.5964     6.1498 C.ar    
  16 C16            1.4458     2.0700     4.9775 C.ar    
  17 N17           -0.5337     2.0798     0.9626 N.3     
  18 C18           -0.3714     3.5406     0.8460 C.3     
  19 C19           -1.7643     4.1731     1.0495 C.3     
  20 C20           -2.5347     3.0773     1.8322 C.3     
  21 C21           -1.9617     1.7826     1.2038 C.3     
  22 Cl22          -0.3447     2.4283     8.5315 Cl      
  23 Cl23           1.0902     4.2936     6.4801 Cl      
  24 O24           -0.2723     0.6507     2.6091 O.2     
  25 H25           -0.7753     1.5281    -1.0500 H       
  26 H26           -0.8311    -0.5204     0.3461 H       
  27 H27            0.7542    -1.8655    -1.0052 H       
  28 H28           -0.0959    -0.6732    -2.0171 H       
  29 H29            2.6957    -0.3329    -0.8304 H       
  30 H30            2.3296    -0.7089    -2.5313 H       
  31 H31            2.7515     1.7155    -2.2266 H       
  32 H32            1.0705     1.4180    -2.7303 H       
  33 H33            1.1662     3.0607    -0.8753 H       
  34 H34            2.0163     1.8683     0.1366 H       
  35 H35            3.1343    -0.2037     0.6233 H       
  36 H36            2.6749    -1.5038     1.7490 H       
  37 H37            2.2525    -1.6293     0.0245 H       
  38 H38            0.5854    -1.1624     5.4146 H       
  39 H39            2.7445     0.7291     3.1244 H       
  40 H40            2.1795    -0.8892     3.6041 H       
  41 H41           -0.3223    -0.2286     7.5042 H       
  42 H42            1.9425     2.7147     4.2675 H       
  43 H43            0.3146     3.8999     1.6131 H       
  44 H44            0.0098     3.7936    -0.1433 H       
  45 H45           -1.6902     5.0873     1.6383 H       
  46 H46           -2.2424     4.3692     0.0897 H       
  47 H47           -2.3094     3.1272     2.8975 H       
  48 H48           -3.6078     3.1543     1.6577 H       
  49 H49           -2.4672     1.5611     0.2639 H       
  50 H50           -2.0637     0.9472     1.8966 H       
@<TRIPOS>BOND
   1    1    2 1
   2    1    6 1
   3    1   17 1
   4    1   25 1
   5    2    3 1
   6    2    7 1
   7    2   26 1
   8    3    4 1
   9    3   27 1
  10    3   28 1
  11    4    5 1
  12    4   29 1
  13    4   30 1
  14    5    6 1
  15    5   31 1
  16    5   32 1
  17    6   33 1
  18    6   34 1
  19    7    8 1
  20    7   12 am
  21    8   35 1
  22    8   36 1
  23    8   37 1
  24    9   10 ar
  25    9   13 ar
  26    9   38 1
  27   10   11 1
  28   10   16 ar
  29   11   12 1
  30   11   39 1
  31   11   40 1
  32   12   24 2
  33   13   14 ar
  34   13   41 1
  35   14   15 ar
  36   14   22 1
  37   15   16 ar
  38   15   23 1
  39   16   42 1
  40   17   18 1
  41   17   21 1
  42   18   19 1
  43   18   43 1
  44   18   44 1
  45   19   20 1
  46   19   45 1
  47   19   46 1
  48   20   21 1
  49   20   47 1
  50   20   48 1
  51   21   49 1
  52   21   50 1

#	End of record

