#	Name: ASD03330865
#	Creating user name:	WinNT
#	Creation time:	15. 06. 2019 20:38

#	Modifying user name:	WinNT
#	Modification time:	15. 06. 2019 20:38

#	Program:	/corina/corina34_cracker 3.40 0067  02.08.2006

@<TRIPOS>MOLECULE
ASD03330865
  60   62    0    0    0
SMALL
NO_CHARGES


@<TRIPOS>ATOM
   1 N1             0.0510     0.9433    -0.1392 N.pl3   
   2 C2            -0.0883    -0.3829     0.1250 C.2     
   3 C3             1.0184    -1.3157     0.5422 C.3     
   4 N4             1.8001    -0.6859     1.6178 N.3     
   5 C5             2.8898     0.1275     1.0748 C.3     
   6 C6             2.4840     0.7703    -0.2484 C.3     
   7 C7             1.2954     1.7093    -0.0256 C.3     
   8 C8            -1.1732     1.4165    -0.5122 C.2     
   9 N9            -2.0365     0.4294    -0.4633 N.2     
  10 C10           -1.3993    -0.6952    -0.0706 C.2     
  11 C11           -2.0129    -2.0223     0.1129 C.2     
  12 O12           -1.3309    -2.9633     0.4716 O.2     
  13 N13           -3.3299    -2.1934    -0.1167 N.am    
  14 C14            2.3124    -1.6938     2.5557 C.3     
  15 C15           -5.1751    -3.6180    -0.7912 C.2     
  16 C16           -3.9399    -3.5128     0.0657 C.3     
  17 C17           -4.3215    -3.6995     1.5356 C.3     
  18 C18           -5.3685    -2.6549     1.9273 C.3     
  19 O19           -5.7941    -2.6182    -1.0881 O.2     
  20 N20           -5.5920    -4.8231    -1.2276 N.am    
  21 C21           -6.8506    -4.9387    -1.9683 C.3     
  22 C22           -4.8993    -5.1016     1.7384 C.3     
  23 C23           -3.0783    -3.5286     2.4109 C.3     
  24 C24           -1.4768     2.8099    -0.9057 C.ar    
  25 C25           -2.2396     3.0656    -2.0465 C.ar    
  26 C26           -2.5193     4.3710    -2.4081 C.ar    
  27 C27           -2.0436     5.4213    -1.6402 C.ar    
  28 C28           -1.2875     5.1716    -0.5093 C.ar    
  29 C29           -1.0066     3.8734    -0.1350 C.ar    
  30 F30           -3.2569     4.6221    -3.5118 F       
  31 Cl31          -2.8350     1.7491    -3.0088 Cl      
  32 H32            0.5901    -2.2509     0.9027 H       
  33 H33            1.6672    -1.5158    -0.3106 H       
  34 H34            3.1434     0.9098     1.7901 H       
  35 H35            3.7625    -0.5052     0.9129 H       
  36 H36            3.3243     1.3379    -0.6482 H       
  37 H37            2.2031    -0.0078    -0.9581 H       
  38 H38            1.3079     2.4979    -0.7780 H       
  39 H39            1.3616     2.1515     0.9685 H       
  40 H40           -3.8739    -1.4430    -0.4027 H       
  41 H41            2.8968    -2.4344     2.0098 H       
  42 H42            2.9442    -1.2093     3.3002 H       
  43 H43            1.4763    -2.1854     3.0531 H       
  44 H44           -3.2286    -4.2855    -0.2259 H       
  45 H45           -6.2542    -2.7766     1.3037 H       
  46 H46           -5.6403    -2.7878     2.9745 H       
  47 H47           -4.9569    -1.6560     1.7828 H       
  48 H48           -5.0586    -5.6139    -1.0512 H       
  49 H49           -7.6725    -4.5855    -1.3455 H       
  50 H50           -6.7958    -4.3351    -2.8742 H       
  51 H51           -7.0200    -5.9816    -2.2362 H       
  52 H52           -4.1328    -5.8454     1.5209 H       
  53 H53           -5.2303    -5.2123     2.7710 H       
  54 H54           -5.7464    -5.2460     1.0679 H       
  55 H55           -2.6667    -2.5297     2.2664 H       
  56 H56           -3.3501    -3.6616     3.4580 H       
  57 H57           -2.3324    -4.2728     2.1318 H       
  58 H58           -2.2638     6.4393    -1.9259 H       
  59 H59           -0.9194     5.9949     0.0849 H       
  60 H60           -0.4198     3.6812     0.7511 H       
@<TRIPOS>BOND
   1    1    2 1
   2    1    7 1
   3    1    8 1
   4    2    3 1
   5    2   10 2
   6    3    4 1
   7    3   32 1
   8    3   33 1
   9    4    5 1
  10    4   14 1
  11    5    6 1
  12    5   34 1
  13    5   35 1
  14    6    7 1
  15    6   36 1
  16    6   37 1
  17    7   38 1
  18    7   39 1
  19    8    9 2
  20    8   24 1
  21    9   10 1
  22   10   11 1
  23   11   12 2
  24   11   13 am
  25   13   16 1
  26   13   40 1
  27   14   41 1
  28   14   42 1
  29   14   43 1
  30   15   19 2
  31   15   20 am
  32   15   16 1
  33   16   17 1
  34   16   44 1
  35   17   18 1
  36   17   22 1
  37   17   23 1
  38   18   45 1
  39   18   46 1
  40   18   47 1
  41   20   21 1
  42   20   48 1
  43   21   49 1
  44   21   50 1
  45   21   51 1
  46   22   52 1
  47   22   53 1
  48   22   54 1
  49   23   55 1
  50   23   56 1
  51   23   57 1
  52   24   25 ar
  53   24   29 ar
  54   25   26 ar
  55   25   31 1
  56   26   27 ar
  57   26   30 1
  58   27   28 ar
  59   27   58 1
  60   28   29 ar
  61   28   59 1
  62   29   60 1

#	End of record

