#	Name: ASD08070179
#	Creating user name:	WinNT
#	Creation time:	15. 06. 2019 21:14

#	Modifying user name:	WinNT
#	Modification time:	15. 06. 2019 21:14

#	Program:	/corina/corina34_cracker 3.40 0067  02.08.2006

@<TRIPOS>MOLECULE
ASD08070179
  39   40    0    0    0
SMALL
NO_CHARGES


@<TRIPOS>ATOM
   1 C1            -0.0167     1.3780     0.0096 C.ar    
   2 C2             0.0021    -0.0041     0.0020 C.ar    
   3 C3             1.2116    -0.6834    -0.0127 C.ar    
   4 C4             2.4134     0.0380    -0.0203 C.ar    
   5 C5             2.3801     1.4357    -0.0129 C.ar    
   6 C6             1.1677     2.0947     0.0022 C.ar    
   7 C7             3.7052    -0.6731    -0.0354 C.2     
   8 N8             4.3062    -1.0035     1.1248 N.am    
   9 Cl9            3.8615     2.3407    -0.0216 Cl      
  10 O10            4.2282    -0.9613    -1.0947 O.2     
  11 C11            6.7281    -0.6964     0.9784 C.3     
  12 C12            5.5895    -1.7099     1.1097 C.3     
  13 C13            5.7173    -1.5309     3.5985 C.3     
  14 C14            5.7543    -2.4961     2.4119 C.3     
  15 C15            6.6911     0.2688     2.1649 C.3     
  16 C16            6.8558    -0.5173     3.4671 C.3     
  17 C17            4.6157    -3.5097     2.5433 C.3     
  18 O18            1.2312    -2.0401    -0.0193 O.3     
  19 Cl19          -1.4901    -0.8911     0.0115 Cl      
  20 C20            1.2284    -2.6827    -1.2956 C.3     
  21 H21           -0.9610     1.9019     0.0169 H       
  22 H22            1.1428     3.1744     0.0075 H       
  23 H23            3.8890    -0.7736     1.9698 H       
  24 H24            7.6829    -1.2220     0.9672 H       
  25 H25            6.6107    -0.1363     0.0507 H       
  26 H26            5.6159    -2.3976     0.2644 H       
  27 H27            4.7624    -1.0053     3.6097 H       
  28 H28            5.8346    -2.0910     4.5262 H       
  29 H29            6.7091    -3.0217     2.4007 H       
  30 H30            7.5022     0.9909     2.0714 H       
  31 H31            5.7362     0.7944     2.1761 H       
  32 H32            6.8295     0.1703     4.3125 H       
  33 H33            7.8107    -1.0429     3.4559 H       
  34 H34            3.6609    -2.9841     2.5545 H       
  35 H35            4.6421    -4.1973     1.6979 H       
  36 H36            4.7331    -4.0697     3.4710 H       
  37 H37            1.2453    -3.7639    -1.1580 H       
  38 H38            0.3290    -2.4001    -1.8427 H       
  39 H39            2.1087    -2.3744    -1.8596 H       
@<TRIPOS>BOND
   1    1    2 ar
   2    1    6 ar
   3    1   21 1
   4    2    3 ar
   5    2   19 1
   6    3    4 ar
   7    3   18 1
   8    4    5 ar
   9    4    7 1
  10    5    6 ar
  11    5    9 1
  12    6   22 1
  13    7    8 am
  14    7   10 2
  15    8   12 1
  16    8   23 1
  17   11   12 1
  18   11   15 1
  19   11   24 1
  20   11   25 1
  21   12   14 1
  22   12   26 1
  23   13   14 1
  24   13   16 1
  25   13   27 1
  26   13   28 1
  27   14   17 1
  28   14   29 1
  29   15   16 1
  30   15   30 1
  31   15   31 1
  32   16   32 1
  33   16   33 1
  34   17   34 1
  35   17   35 1
  36   17   36 1
  37   18   20 1
  38   20   37 1
  39   20   38 1
  40   20   39 1

#	End of record

