#	Name: ASD00170287
#	Creating user name:	WinNT
#	Creation time:	15. 06. 2019 18:31

#	Modifying user name:	WinNT
#	Modification time:	15. 06. 2019 18:31

#	Program:	/corina/corina34_cracker 3.40 0067  02.08.2006

@<TRIPOS>MOLECULE
ASD00170287
  30   32    0    0    0
SMALL
NO_CHARGES


@<TRIPOS>ATOM
   1 C1            -0.1312     1.2962    -0.1128 C.2     
   2 C2            -0.0349    -0.0649     0.0024 C.2     
   3 C3            -1.3214    -0.7205     0.1576 C.2     
   4 C4            -2.3393     0.1468     0.1560 C.2     
   5 S5            -1.7573     1.7932    -0.0283 S.3     
   6 C6             1.2396    -0.7882    -0.0286 C.2     
   7 C7             1.7836    -1.2618    -1.3066 C.2     
   8 O8             1.8478    -0.9962     1.0073 O.2     
   9 N9             0.9440     2.1495    -0.2702 N.pl3   
  10 S10            1.0107    -1.0775    -2.8752 S.3     
  11 C11            2.3002    -1.8757    -3.6568 C.2     
  12 C12            3.2372    -2.2467    -2.7768 C.2     
  13 C13            2.9746    -1.9115    -1.4691 C.2     
  14 C14           -1.4988    -2.2233     0.3058 C.3     
  15 C15           -2.8958    -2.5018     0.8649 C.3     
  16 C16           -3.9324    -1.7462     0.0280 C.3     
  17 C17           -3.7972    -0.2459     0.3007 C.3     
  18 H18            1.8488     1.8023    -0.2286 H       
  19 H19            0.7942     3.0957    -0.4223 H       
  20 H20            2.3529    -2.0576    -4.7200 H       
  21 H21            4.1360    -2.7675    -3.0723 H       
  22 H22            3.6395    -2.1460    -0.6510 H       
  23 H23           -1.3930    -2.7014    -0.6680 H       
  24 H24           -0.7465    -2.6142     0.9908 H       
  25 H25           -3.1000    -3.5715     0.8187 H       
  26 H26           -2.9477    -2.1646     1.9002 H       
  27 H27           -3.7588    -1.9411    -1.0303 H       
  28 H28           -4.9340    -2.0780     0.3017 H       
  29 H29           -4.1352    -0.0267     1.3135 H       
  30 H30           -4.3995     0.3116    -0.4166 H       
@<TRIPOS>BOND
   1    1    2 2
   2    1    9 1
   3    1    5 1
   4    2    3 1
   5    2    6 1
   6    3    4 2
   7    3   14 1
   8    4    5 1
   9    4   17 1
  10    6    7 1
  11    6    8 2
  12    7   10 1
  13    7   13 2
  14    9   18 1
  15    9   19 1
  16   10   11 1
  17   11   12 2
  18   11   20 1
  19   12   13 1
  20   12   21 1
  21   13   22 1
  22   14   15 1
  23   14   23 1
  24   14   24 1
  25   15   16 1
  26   15   25 1
  27   15   26 1
  28   16   17 1
  29   16   27 1
  30   16   28 1
  31   17   29 1
  32   17   30 1

#	End of record

