#	Name: ASD01883074
#	Creating user name:	WinNT
#	Creation time:	15. 06. 2019 19:45

#	Modifying user name:	WinNT
#	Modification time:	15. 06. 2019 19:45

#	Program:	/corina/corina34_cracker 3.40 0067  02.08.2006

@<TRIPOS>MOLECULE
ASD01883074
  33   35    0    0    0
SMALL
NO_CHARGES


@<TRIPOS>ATOM
   1 N1            -0.0162     1.3415     0.0094 N.am    
   2 C2             0.0021    -0.0041     0.0020 C.2     
   3 C3            -1.2144    -0.7274     0.0102 C.2     
   4 C4            -2.4281    -0.0089     0.0261 C.2     
   5 C5            -2.3786     1.4027     0.0332 C.2     
   6 C6            -1.1855     2.0348     0.0299 C.2     
   7 O7             1.0660    -0.5997    -0.0122 O.2     
   8 C8            -1.2131    -2.1594     0.0021 C.1     
   9 N9            -1.2121    -3.2954    -0.0044 N.1     
  10 C10            1.2518     2.0753     0.0013 C.3     
  11 C11            1.6730     2.3345    -1.4223 C.ar    
  12 C12            1.2664     3.4897    -2.0636 C.ar    
  13 C13            1.6524     3.7280    -3.3692 C.ar    
  14 C14            2.4458     2.8102    -4.0342 C.ar    
  15 C15            2.8524     1.6543    -3.3918 C.ar    
  16 C16            2.4704     1.4198    -2.0843 C.ar    
  17 C17           -3.7164    -0.7137     0.0347 C.2     
  18 Cl18           2.9306     3.1086    -5.6743 Cl      
  19 C19           -4.6275    -0.6873     1.0523 C.2     
  20 C20           -5.7512    -1.4391     0.7958 C.2     
  21 C21           -5.7604    -2.0590    -0.3892 C.2     
  22 S22           -4.3366    -1.7208    -1.2664 S.3     
  23 H23           -3.2940     1.9757     0.0451 H       
  24 H24           -1.1596     3.1145     0.0354 H       
  25 H25            1.1254     3.0248     0.5214 H       
  26 H26            2.0169     1.4842     0.5046 H       
  27 H27            0.6468     4.2059    -1.5445 H       
  28 H28            1.3344     4.6304    -3.8703 H       
  29 H29            3.4718     0.9374    -3.9104 H       
  30 H30            2.7877     0.5175    -1.5828 H       
  31 H31           -4.4803    -0.1322     1.9670 H       
  32 H32           -6.5658    -1.5226     1.4999 H       
  33 H33           -6.5641    -2.6864    -0.7454 H       
@<TRIPOS>BOND
   1    1    2 am
   2    1   10 1
   3    1    6 1
   4    2    3 1
   5    2    7 2
   6    3    4 2
   7    3    8 1
   8    4    5 1
   9    4   17 1
  10    5    6 2
  11    5   23 1
  12    6   24 1
  13    8    9 3
  14   10   11 1
  15   10   25 1
  16   10   26 1
  17   11   12 ar
  18   11   16 ar
  19   12   13 ar
  20   12   27 1
  21   13   14 ar
  22   13   28 1
  23   14   15 ar
  24   14   18 1
  25   15   16 ar
  26   15   29 1
  27   16   30 1
  28   17   19 2
  29   17   22 1
  30   19   20 1
  31   19   31 1
  32   20   21 2
  33   20   32 1
  34   21   22 1
  35   21   33 1

#	End of record

