#	Name: ASD02508381
#	Creating user name:	WinNT
#	Creation time:	15. 06. 2019 20:24

#	Modifying user name:	WinNT
#	Modification time:	15. 06. 2019 20:24

#	Program:	/corina/corina34_cracker 3.40 0067  02.08.2006

@<TRIPOS>MOLECULE
ASD02508381
  45   47    0    0    0
SMALL
NO_CHARGES


@<TRIPOS>ATOM
   1 C1            -0.1936     1.7620     0.2781 C.2     
   2 C2            -0.1738     0.3623     0.4454 C.2     
   3 C3             1.1146    -0.0323     0.4049 C.2     
   4 N4             1.8941     1.0743     0.2182 N.pl3   
   5 C5             1.0835     2.1716     0.1413 C.2     
   6 C6             3.2888     1.0825     0.1222 C.ar    
   7 C7             4.0282     1.9622     0.9054 C.ar    
   8 N8             3.8935     0.2495    -0.7088 N.ar    
   9 C9             5.2069     0.2240    -0.8299 C.ar    
  10 C10            6.0035     1.0731    -0.0873 C.ar    
  11 C11            5.4091     1.9593     0.8005 C.ar    
  12 S12            1.6934    -1.6888     0.5655 S.o2    
  13 O13            1.6106    -2.2700    -0.7286 O.2     
  14 O14            2.9010    -1.6213     1.3113 O.2     
  15 N15            0.6034    -2.4992     1.5127 N.am    
  16 C16            0.3859    -2.0928     2.8311 C.ar    
  17 C17           -0.9086    -1.9973     3.3240 C.ar    
  18 C18            1.2477    -1.3859     4.9598 C.ar    
  19 C19            1.4645    -1.7893     3.6513 C.ar    
  20 C20           -1.1236    -1.5937     4.6328 C.ar    
  21 C21           -0.0460    -1.2849     5.4495 C.ar    
  22 Cl22           3.2311     3.0495     1.9991 Cl      
  23 O23            2.3031    -1.0893     5.7629 O.3     
  24 C24            2.0065    -0.6803     7.0996 C.3     
  25 O25           -2.3905    -1.5002     5.1155 O.3     
  26 C26           -2.5381    -1.0781     6.4727 C.3     
  27 C27            7.5027     1.0340    -0.2350 C.3     
  28 F28            7.8532     0.0621    -1.1783 F       
  29 F29            7.9621     2.2848    -0.6613 F       
  30 F30            8.0847     0.7188     0.9976 F       
  31 H31           -1.0716     2.3906     0.2583 H       
  32 H32           -1.0337    -0.2769     0.5813 H       
  33 H33            1.4096     3.1909    -0.0041 H       
  34 H34            5.6651    -0.4702    -1.5187 H       
  35 H35            6.0096     2.6337     1.3929 H       
  36 H36            0.1159    -3.2563     1.1519 H       
  37 H37           -1.7479    -2.2371     2.6880 H       
  38 H38            2.4719    -1.8680     3.2701 H       
  39 H39           -0.2141    -0.9702     6.4689 H       
  40 H40            1.3939     0.2210     7.0762 H       
  41 H41            1.4638    -1.4754     7.6108 H       
  42 H42            2.9355    -0.4745     7.6312 H       
  43 H43           -3.5968    -1.0461     6.7301 H       
  44 H44           -2.0256    -1.7810     7.1296 H       
  45 H45           -2.1046    -0.0854     6.5937 H       
@<TRIPOS>BOND
   1    1    2 1
   2    1    5 2
   3    1   31 1
   4    2    3 2
   5    2   32 1
   6    3    4 1
   7    3   12 1
   8    4    5 1
   9    4    6 1
  10    5   33 1
  11    6    7 ar
  12    6    8 ar
  13    7   22 1
  14    7   11 ar
  15    8    9 ar
  16    9   10 ar
  17    9   34 1
  18   10   11 ar
  19   10   27 1
  20   11   35 1
  21   12   13 2
  22   12   14 2
  23   12   15 am
  24   15   16 1
  25   15   36 1
  26   16   17 ar
  27   16   19 ar
  28   17   20 ar
  29   17   37 1
  30   18   19 ar
  31   18   23 1
  32   18   21 ar
  33   19   38 1
  34   20   21 ar
  35   20   25 1
  36   21   39 1
  37   23   24 1
  38   24   40 1
  39   24   41 1
  40   24   42 1
  41   25   26 1
  42   26   43 1
  43   26   44 1
  44   26   45 1
  45   27   28 1
  46   27   29 1
  47   27   30 1

#	End of record

