#	Name: ASD09740179
#	Creating user name:	WinNT
#	Creation time:	15. 06. 2019 21:22

#	Modifying user name:	WinNT
#	Modification time:	15. 06. 2019 21:22

#	Program:	/corina/corina34_cracker 3.40 0067  02.08.2006

@<TRIPOS>MOLECULE
ASD09740179
  37   39    0    0    0
SMALL
NO_CHARGES


@<TRIPOS>ATOM
   1 O1            -0.0144     1.2086     0.0087 O.3     
   2 N2             0.0021    -0.0041     0.0020 N.2     
   3 C3             1.2407     1.6828    -0.0008 C.2     
   4 N4             2.0451     0.6378    -0.0140 N.2     
   5 C5             1.2351    -0.4415    -0.0121 C.2     
   6 C6             1.6638    -1.8627    -0.0234 C.ar    
   7 C7             1.6452     3.1065     0.0023 C.ar    
   8 C8             3.0195    -2.1832    -0.0376 C.ar    
   9 C9             0.7121    -2.8792    -0.0141 C.ar    
  10 C10            1.1183    -4.2033    -0.0247 C.ar    
  11 C11            2.4711    -4.5144    -0.0447 C.ar    
  12 C12            3.4160    -3.5058    -0.0481 C.ar    
  13 C13            2.9972     3.4697    -0.0091 C.ar    
  14 C14            3.3330     4.8075    -0.0063 C.ar    
  15 N15            2.4013     5.7415     0.0074 N.ar    
  16 C16            1.1124     5.4449     0.0185 C.ar    
  17 C17            0.6881     4.1239     0.0107 C.ar    
  18 O18            0.1944     6.4440     0.0328 O.3     
  19 C19            0.6931     7.7832     0.0349 C.3     
  20 C20            2.9106    -5.9558    -0.0562 C.3     
  21 O21            0.1925    -5.1982    -0.0152 O.3     
  22 C22           -1.1814    -4.8057     0.0058 C.3     
  23 H23            3.7603    -1.3973    -0.0407 H       
  24 H24           -0.3400    -2.6357     0.0018 H       
  25 H25            4.4673    -3.7527    -0.0636 H       
  26 H26            3.7671     2.7124    -0.0196 H       
  27 H27            4.3741     5.0947    -0.0150 H       
  28 H28           -0.3654     3.8861     0.0196 H       
  29 H29            1.3101     7.9397     0.9197 H       
  30 H30            1.2926     7.9491    -0.8601 H       
  31 H31           -0.1431     8.4823     0.0468 H       
  32 H32            3.0024    -6.2994    -1.0866 H       
  33 H33            3.8749    -6.0456     0.4440 H       
  34 H34            2.1725    -6.5649     0.4656 H       
  35 H35           -1.3769    -4.2151     0.9008 H       
  36 H36           -1.4022    -4.2085    -0.8790 H       
  37 H37           -1.8130    -5.6940     0.0115 H       
@<TRIPOS>BOND
   1    1    2 1
   2    1    3 1
   3    2    5 2
   4    3    4 2
   5    3    7 1
   6    4    5 1
   7    5    6 1
   8    6    8 ar
   9    6    9 ar
  10    7   13 ar
  11    7   17 ar
  12    8   12 ar
  13    8   23 1
  14    9   10 ar
  15    9   24 1
  16   10   11 ar
  17   10   21 1
  18   11   12 ar
  19   11   20 1
  20   12   25 1
  21   13   14 ar
  22   13   26 1
  23   14   15 ar
  24   14   27 1
  25   15   16 ar
  26   16   17 ar
  27   16   18 1
  28   17   28 1
  29   18   19 1
  30   19   29 1
  31   19   30 1
  32   19   31 1
  33   20   32 1
  34   20   33 1
  35   20   34 1
  36   21   22 1
  37   22   35 1
  38   22   36 1
  39   22   37 1

#	End of record

