#	Name: ASD03082394
#	Creating user name:	WinNT
#	Creation time:	15. 06. 2019 20:27

#	Modifying user name:	WinNT
#	Modification time:	15. 06. 2019 20:27

#	Program:	/corina/corina34_cracker 3.40 0067  02.08.2006

@<TRIPOS>MOLECULE
ASD03082394
  40   42    0    0    0
SMALL
NO_CHARGES


@<TRIPOS>ATOM
   1 C1             0.8589     3.2255    -0.1962 C.ar    
   2 C2             1.9450     4.0642     0.0172 C.ar    
   3 C3             1.7634     5.4331     0.0522 C.ar    
   4 C4             0.5018     5.9706    -0.1249 C.ar    
   5 C5            -0.5842     5.1395    -0.3380 C.ar    
   6 Cl6           -2.1662     5.8189    -0.5604 Cl      
   7 N7             1.0402     1.8392    -0.2316 N.pl3   
   8 C8             2.3318     1.3024    -0.2240 C.2     
   9 C9             2.6566    -0.0625    -0.1386 C.2     
  10 N10            3.4497     1.9857    -0.3010 N.2     
  11 N11            4.5190     1.0816    -0.2620 N.pl3   
  12 C12            4.0038    -0.1716    -0.1620 C.2     
  13 C13            5.8767     1.4105    -0.3197 C.ar    
  14 C14            6.7773     0.6087    -1.0183 C.ar    
  15 C15            6.3633     2.5517     0.3152 C.ar    
  16 C16            7.7099     2.8416     0.2341 C.ar    
  17 N17            8.5321     2.0546    -0.4336 N.ar    
  18 C18            8.1091     0.9682    -1.0516 C.ar    
  19 C19            8.2483     4.0727     0.9162 C.3     
  20 C20            9.0939     0.1062    -1.7988 C.3     
  21 C21            4.7927    -1.4535    -0.0897 C.3     
  22 C22           -0.4103     3.7670    -0.3690 C.ar    
  23 F23           -1.4698     2.9551    -0.5773 F       
  24 C24            4.8813    -2.0516    -1.4318 C.1     
  25 N25            4.9496    -2.5131    -2.4676 N.1     
  26 H26            2.9312     3.6463     0.1561 H       
  27 H27            2.6084     6.0849     0.2186 H       
  28 H28            0.3634     7.0413    -0.0966 H       
  29 H29            0.2703     1.2500    -0.2615 H       
  30 H30            1.9540    -0.8795    -0.0665 H       
  31 H31            6.4377    -0.2818    -1.5263 H       
  32 H32            5.6956     3.2005     0.8627 H       
  33 H33            8.5472     3.8227     1.9342 H       
  34 H34            9.1118     4.4452     0.3651 H       
  35 H35            7.4753     4.8408     0.9428 H       
  36 H36            9.4970    -0.6511    -1.1264 H       
  37 H37            8.5902    -0.3805    -2.6340 H       
  38 H38            9.9066     0.7267    -2.1763 H       
  39 H39            5.7958    -1.2424     0.2809 H       
  40 H40            4.2948    -2.1490     0.5859 H       
@<TRIPOS>BOND
   1    1    2 ar
   2    1    7 1
   3    1   22 ar
   4    2    3 ar
   5    2   26 1
   6    3    4 ar
   7    3   27 1
   8    4    5 ar
   9    4   28 1
  10    5   22 ar
  11    5    6 1
  12    7    8 1
  13    7   29 1
  14    8    9 1
  15    8   10 2
  16    9   12 2
  17    9   30 1
  18   10   11 1
  19   11   12 1
  20   11   13 1
  21   12   21 1
  22   13   14 ar
  23   13   15 ar
  24   14   18 ar
  25   14   31 1
  26   15   16 ar
  27   15   32 1
  28   16   17 ar
  29   16   19 1
  30   17   18 ar
  31   18   20 1
  32   19   33 1
  33   19   34 1
  34   19   35 1
  35   20   36 1
  36   20   37 1
  37   20   38 1
  38   21   24 1
  39   21   39 1
  40   21   40 1
  41   22   23 1
  42   24   25 3

#	End of record

