#	Name: ASD01883987
#	Creating user name:	WinNT
#	Creation time:	15. 06. 2019 19:47

#	Modifying user name:	WinNT
#	Modification time:	15. 06. 2019 19:47

#	Program:	/corina/corina34_cracker 3.40 0067  02.08.2006

@<TRIPOS>MOLECULE
ASD01883987
  39   41    0    0    0
SMALL
NO_CHARGES


@<TRIPOS>ATOM
   1 F1             0.0021    -0.0041     0.0020 F       
   2 C2            -0.0169     1.3948     0.0097 C.3     
   3 F3             1.2956     1.8790    -0.0002 F       
   4 F4            -0.6935     1.8582    -1.1237 F       
   5 C5            -0.7330     1.8882     1.2685 C.3     
   6 C6             0.0070     1.3814     2.5080 C.3     
   7 C7            -0.7092     1.8748     3.7668 C.3     
   8 N8            -0.0006     1.3895     4.9537 N.am    
   9 C9            -0.3763     0.1011     5.5250 C.3     
  10 C10            0.8352    -0.7112     5.9827 C.3     
  11 N11            1.7325     0.1520     6.7505 N.pl3   
  12 C12            1.8275     1.5074     6.5154 C.2     
  13 N13            2.7146     2.0155     7.3247 N.2     
  14 C14            3.2082     1.0525     8.1020 C.2     
  15 Cl15           4.4124     1.2566     9.3356 Cl      
  16 C16            2.5932    -0.1396     7.7559 C.2     
  17 C17            2.8283    -1.4660     8.3634 C.ar    
  18 C18            1.7485    -2.2890     8.6892 C.ar    
  19 C19            1.9744    -3.5261     9.2555 C.ar    
  20 C20            3.2689    -3.9524     9.5012 C.ar    
  21 Cl21           3.5451    -5.5111    10.2139 Cl      
  22 C22            4.3440    -3.1406     9.1804 C.ar    
  23 C23            4.1312    -1.9036     8.6087 C.ar    
  24 C24            0.9871     2.1473     5.4847 C.2     
  25 O25            1.1707     3.2973     5.1339 O.2     
  26 H26           -0.7478     2.9781     1.2745 H       
  27 H27           -1.7556     1.5109     1.2763 H       
  28 H28            0.0217     0.2915     2.5020 H       
  29 H29            1.0296     1.7586     2.5003 H       
  30 H30           -0.7240     2.9647     3.7728 H       
  31 H31           -1.7318     1.4975     3.7746 H       
  32 H32           -1.0301     0.2717     6.3803 H       
  33 H33           -0.9220    -0.4715     4.7751 H       
  34 H34            0.5028    -1.5393     6.6086 H       
  35 H35            1.3621    -1.1011     5.1117 H       
  36 H36            0.7385    -1.9574     8.4984 H       
  37 H37            1.1399    -4.1635     9.5083 H       
  38 H38            5.3513    -3.4784     9.3747 H       
  39 H39            4.9706    -1.2731     8.3551 H       
@<TRIPOS>BOND
   1    1    2 1
   2    2    3 1
   3    2    4 1
   4    2    5 1
   5    5    6 1
   6    5   26 1
   7    5   27 1
   8    6    7 1
   9    6   28 1
  10    6   29 1
  11    7    8 1
  12    7   30 1
  13    7   31 1
  14    8   24 am
  15    8    9 1
  16    9   10 1
  17    9   32 1
  18    9   33 1
  19   10   11 1
  20   10   34 1
  21   10   35 1
  22   11   16 1
  23   11   12 1
  24   12   13 2
  25   12   24 1
  26   13   14 1
  27   14   15 1
  28   14   16 2
  29   16   17 1
  30   17   23 ar
  31   17   18 ar
  32   18   19 ar
  33   18   36 1
  34   19   20 ar
  35   19   37 1
  36   20   21 1
  37   20   22 ar
  38   22   23 ar
  39   22   38 1
  40   23   39 1
  41   24   25 2

#	End of record

