#	Name: ASD06170166
#	Creating user name:	WinNT
#	Creation time:	15. 06. 2019 21:05

#	Modifying user name:	WinNT
#	Modification time:	15. 06. 2019 21:05

#	Program:	/corina/corina34_cracker 3.40 0067  02.08.2006

@<TRIPOS>MOLECULE
ASD06170166
  79   83    0    0    0
SMALL
NO_CHARGES


@<TRIPOS>ATOM
   1 N1            -1.7369     3.5788    -4.5339 N.am    
   2 C2            -2.0821     2.6944    -5.6552 C.3     
   3 C3            -2.1873     3.5348    -6.9317 C.3     
   4 C4            -0.8894     4.3215    -7.1282 C.3     
   5 C5            -0.6797     5.2671    -5.9433 C.3     
   6 C6            -0.5573     4.4463    -4.6556 C.3     
   7 C7            -2.4911     3.5981    -3.4171 C.2     
   8 O8            -3.5131     2.9417    -3.3624 O.2     
   9 N9            -2.1125     4.3449    -2.3610 N.am    
  10 C10           -2.9468     4.4539    -1.2494 C.ar    
  11 C11           -4.2895     4.1206    -1.3628 C.ar    
  12 C12           -5.1092     4.2337    -0.2460 C.ar    
  13 C13           -4.5442     4.6803     0.9485 C.ar    
  14 C14           -3.2021     4.9925     0.9831 C.ar    
  15 N15           -2.4491     4.8693    -0.0945 N.ar    
  16 O16           -6.4273     3.9179    -0.3163 O.3     
  17 C17           -7.3267     4.9372    -0.3597 C.ar    
  18 C18           -8.6886     4.6645    -0.3132 C.ar    
  19 C19           -9.6023     5.7007    -0.3569 C.ar    
  20 C20           -9.1583     7.0136    -0.4471 C.ar    
  21 C21           -7.7975     7.2843    -0.4934 C.ar    
  22 C22           -6.8846     6.2485    -0.4444 C.ar    
  23 C23          -11.2736     7.9409     0.1281 C.2     
  24 O24          -11.5080     6.9572     0.8051 O.2     
  25 N25          -10.0832     8.0642    -0.4919 N.am    
  26 N26          -14.1669    10.1461     0.1853 N.pl3   
  27 N27          -13.3272    10.9013    -0.6387 N.am    
  28 C28          -12.1629    10.2366    -0.7903 C.2     
  29 C29          -12.2871     8.9932    -0.0132 C.2     
  30 C30          -13.5453     9.0105     0.5563 C.2     
  31 C31          -13.6414    12.1386    -1.2102 C.ar    
  32 C32          -14.1247    13.1698    -0.4152 C.ar    
  33 C33          -14.4335    14.3905    -0.9825 C.ar    
  34 C34          -14.2626    14.5865    -2.3407 C.ar    
  35 C35          -13.7821    13.5617    -3.1351 C.ar    
  36 C36          -13.4655    12.3405    -2.5730 C.ar    
  37 O37          -11.1996    10.5948    -1.4418 O.2     
  38 C38          -14.1247     7.9393     1.4439 C.3     
  39 C39          -15.5200    10.5352     0.5902 C.3     
  40 C40          -16.5354     9.9447    -0.3902 C.3     
  41 C41          -17.9359    10.4522    -0.0412 C.3     
  42 C42          -16.1778    10.3735    -1.8147 C.3     
  43 O43          -16.5096     8.5187    -0.3013 O.3     
  44 F44           -9.1194     3.3870    -0.2258 F       
  45 H45           -1.3054     1.9395    -5.7777 H       
  46 H46           -3.0380     2.2094    -5.4572 H       
  47 H47           -2.3481     2.8786    -7.7871 H       
  48 H48           -3.0233     4.2285    -6.8427 H       
  49 H49           -0.0508     3.6282    -7.1924 H       
  50 H50           -0.9522     4.9014    -8.0490 H       
  51 H51            0.2327     5.8438    -6.0952 H       
  52 H52           -1.5298     5.9445    -5.8636 H       
  53 H53           -0.5071     5.1173    -3.7981 H       
  54 H54            0.3437     3.8343    -4.6966 H       
  55 H55           -1.2595     4.8066    -2.3744 H       
  56 H56           -4.6914     3.7786    -2.3051 H       
  57 H57           -5.1513     4.7806     1.8360 H       
  58 H58           -2.7595     5.3387     1.9054 H       
  59 H59          -10.6609     5.4896    -0.3212 H       
  60 H60           -7.4523     8.3052    -0.5640 H       
  61 H61           -5.8260     6.4601    -0.4764 H       
  62 H62           -9.8672     8.8805    -0.9691 H       
  63 H63          -14.2591    13.0172     0.6455 H       
  64 H64          -14.8093    15.1928    -0.3649 H       
  65 H65          -14.5052    15.5419    -2.7820 H       
  66 H66          -13.6503    13.7177    -4.1957 H       
  67 H67          -13.0856    11.5421    -3.1932 H       
  68 H68          -14.6453     7.2027     0.8320 H       
  69 H69          -13.3215     7.4509     1.9957 H       
  70 H70          -14.8264     8.3895     2.1461 H       
  71 H71          -15.7216    10.1585     1.5930 H       
  72 H72          -15.6017    11.6222     0.5872 H       
  73 H73          -17.9556    11.5399    -0.1089 H       
  74 H74          -18.6593    10.0315    -0.7396 H       
  75 H75          -18.1907    10.1467     0.9737 H       
  76 H76          -15.1800    10.0120    -2.0633 H       
  77 H77          -16.9012     9.9529    -2.5131 H       
  78 H78          -16.1975    11.4613    -1.8824 H       
  79 H79          -16.7271     8.1753     0.5761 H       
@<TRIPOS>BOND
   1    1    2 1
   2    1    6 1
   3    1    7 am
   4    2    3 1
   5    2   45 1
   6    2   46 1
   7    3    4 1
   8    3   47 1
   9    3   48 1
  10    4    5 1
  11    4   49 1
  12    4   50 1
  13    5    6 1
  14    5   51 1
  15    5   52 1
  16    6   53 1
  17    6   54 1
  18    7    8 2
  19    7    9 am
  20    9   10 1
  21    9   55 1
  22   10   11 ar
  23   10   15 ar
  24   11   12 ar
  25   11   56 1
  26   12   13 ar
  27   12   16 1
  28   13   14 ar
  29   13   57 1
  30   14   15 ar
  31   14   58 1
  32   16   17 1
  33   17   18 ar
  34   17   22 ar
  35   18   19 ar
  36   18   44 1
  37   19   20 ar
  38   19   59 1
  39   20   21 ar
  40   20   25 1
  41   21   22 ar
  42   21   60 1
  43   22   61 1
  44   23   24 2
  45   23   25 am
  46   23   29 1
  47   25   62 1
  48   26   27 1
  49   26   30 1
  50   26   39 1
  51   27   28 am
  52   27   31 1
  53   28   29 1
  54   28   37 2
  55   29   30 2
  56   30   38 1
  57   31   32 ar
  58   31   36 ar
  59   32   33 ar
  60   32   63 1
  61   33   34 ar
  62   33   64 1
  63   34   35 ar
  64   34   65 1
  65   35   36 ar
  66   35   66 1
  67   36   67 1
  68   38   68 1
  69   38   69 1
  70   38   70 1
  71   39   40 1
  72   39   71 1
  73   39   72 1
  74   40   41 1
  75   40   42 1
  76   40   43 1
  77   41   73 1
  78   41   74 1
  79   41   75 1
  80   42   76 1
  81   42   77 1
  82   42   78 1
  83   43   79 1

#	End of record

