#	Name: ASD01885208
#	Creating user name:	WinNT
#	Creation time:	15. 06. 2019 19:49

#	Modifying user name:	WinNT
#	Modification time:	15. 06. 2019 19:49

#	Program:	/corina/corina34_cracker 3.40 0067  02.08.2006

@<TRIPOS>MOLECULE
ASD01885208
  57   61    0    0    0
SMALL
NO_CHARGES


@<TRIPOS>ATOM
   1 C1             0.6530     1.4723    -1.0183 C.2     
   2 C2             1.1215    -0.6544    -0.0287 C.2     
   3 C3             1.7055     0.0196     1.0661 C.2     
   4 C4             1.7476     1.3660     1.0908 C.2     
   5 N5             1.2283     2.0963     0.0619 N.pl3   
   6 C6             1.1292     3.4341    -0.1854 C.2     
   7 N7             0.5325     3.5772    -1.3393 N.2     
   8 N8             0.2508     2.4272    -1.8430 N.2     
   9 C9             1.6178     4.5443     0.7090 C.3     
  10 C10            3.0632     4.8920     0.3472 C.3     
  11 N11            1.0792    -2.0451    -0.0532 N.pl3   
  12 C12            2.3158    -2.8366    -0.1403 C.3     
  13 C13            2.3003    -3.8879     0.9745 C.3     
  14 N14            1.0574    -4.6665     0.8917 N.3     
  15 C15           -0.1196    -3.8167     1.1162 C.3     
  16 C16           -0.2030    -2.7626     0.0134 C.3     
  17 C17            0.5979     0.0689    -1.0657 C.2     
  18 C18            3.7051     6.0803     1.0661 C.3     
  19 C19            4.1350     4.6534     1.4126 C.3     
  20 C20           -0.0303    -0.6307    -2.2434 C.3     
  21 C21            1.0793    -5.7947     1.8323 C.3     
  22 C22           -0.2905    -6.4194     1.8994 C.ar    
  23 C23           -0.6252    -7.4459     1.0358 C.ar    
  24 C24           -1.8815    -8.0188     1.0974 C.ar    
  25 C25           -2.8033    -7.5657     2.0228 C.ar    
  26 C26           -2.4684    -6.5401     2.8867 C.ar    
  27 C27           -1.2103    -5.9700     2.8281 C.ar    
  28 C28           -3.4734    -6.0459     3.8952 C.3     
  29 F29           -4.6612    -6.7734     3.7648 F       
  30 F30           -2.9614    -6.2165     5.1859 F       
  31 F31           -3.7304    -4.6892     3.6710 F       
  32 F32           -1.3734    -0.9030    -1.9619 F       
  33 F33            0.0522     0.1913    -3.3724 F       
  34 F34            0.6471    -1.8298    -2.4891 F       
  35 H35            2.1199    -0.5466     1.8872 H       
  36 H36            2.1964     1.8719     1.9328 H       
  37 H37            0.9879     5.4235     0.5739 H       
  38 H38            1.5714     4.2204     1.7487 H       
  39 H39            3.3409     4.7234    -0.6933 H       
  40 H40            2.3660    -3.3318    -1.1100 H       
  41 H41            3.1787    -2.1826    -0.0149 H       
  42 H42            3.1552    -4.5541     0.8581 H       
  43 H43            2.3548    -3.3916     1.9434 H       
  44 H44           -1.0198    -4.4312     1.1026 H       
  45 H45           -0.0315    -3.3213     2.0831 H       
  46 H46           -1.0060    -2.0605     0.2379 H       
  47 H47           -0.3942    -3.2481    -0.9435 H       
  48 H48            4.4055     6.6932     0.4988 H       
  49 H49            3.0977     6.6143     1.7968 H       
  50 H50            3.8105     4.2487     2.3712 H       
  51 H51            5.1183     4.3276     1.0731 H       
  52 H52            1.8010    -6.5373     1.4922 H       
  53 H53            1.3645    -5.4374     2.8218 H       
  54 H54            0.0949    -7.7998     0.3129 H       
  55 H55           -2.1432    -8.8201     0.4223 H       
  56 H56           -3.7853    -8.0129     2.0704 H       
  57 H57           -0.9473    -5.1711     3.5056 H       
@<TRIPOS>BOND
   1    1   17 1
   2    1    5 1
   3    1    8 2
   4    2    3 1
   5    2   11 1
   6    2   17 2
   7    3    4 2
   8    3   35 1
   9    4    5 1
  10    4   36 1
  11    5    6 1
  12    6    7 2
  13    6    9 1
  14    7    8 1
  15    9   10 1
  16    9   37 1
  17    9   38 1
  18   10   18 1
  19   10   19 1
  20   10   39 1
  21   11   12 1
  22   11   16 1
  23   12   13 1
  24   12   40 1
  25   12   41 1
  26   13   14 1
  27   13   42 1
  28   13   43 1
  29   14   15 1
  30   14   21 1
  31   15   16 1
  32   15   44 1
  33   15   45 1
  34   16   46 1
  35   16   47 1
  36   17   20 1
  37   18   19 1
  38   18   48 1
  39   18   49 1
  40   19   50 1
  41   19   51 1
  42   20   32 1
  43   20   33 1
  44   20   34 1
  45   21   22 1
  46   21   52 1
  47   21   53 1
  48   22   23 ar
  49   22   27 ar
  50   23   24 ar
  51   23   54 1
  52   24   25 ar
  53   24   55 1
  54   25   26 ar
  55   25   56 1
  56   26   27 ar
  57   26   28 1
  58   27   57 1
  59   28   29 1
  60   28   30 1
  61   28   31 1

#	End of record

