#	Name: ASD04590142
#	Creating user name:	WinNT
#	Creation time:	15. 06. 2019 20:50

#	Modifying user name:	WinNT
#	Modification time:	15. 06. 2019 20:50

#	Program:	/corina/corina34_cracker 3.40 0067  02.08.2006

@<TRIPOS>MOLECULE
ASD04590142
  49   51    0    0    0
SMALL
NO_CHARGES


@<TRIPOS>ATOM
   1 N1            -0.0153     1.2802     0.0091 N.pl3   
   2 N2             0.0021    -0.0041     0.0020 N.2     
   3 C3             1.2455    -0.4440    -0.0122 C.2     
   4 C4             2.0903     0.6961    -0.0142 C.2     
   5 C5             1.2523     1.7667    -0.0004 C.2     
   6 C6             1.6765    -1.8547    -0.0232 C.2     
   7 N7             0.7571    -2.8402    -0.0194 N.am    
   8 O8             2.8611    -2.1284    -0.0356 O.2     
   9 N9             3.4930     0.7146    -0.0268 N.am    
  10 C10            4.1514     1.8906    -0.0268 C.2     
  11 C11            6.3151     3.1307    -0.0402 C.ar    
  12 C12            5.6263     1.9101    -0.0401 C.ar    
  13 C13            1.1851    -4.2412    -0.0303 C.3     
  14 C14            0.0894    -5.1158     0.5856 C.3     
  15 C15            0.5160    -6.5838     0.5160 C.3     
  16 N16            0.7410    -6.9637    -0.8845 N.3     
  17 C17            1.8214    -6.1695    -1.4831 C.3     
  18 C18            1.4338    -4.6891    -1.4733 C.3     
  19 C19            7.7020     3.1371    -0.0523 C.ar    
  20 C20            8.3996     1.9457    -0.0646 C.ar    
  21 C21            7.7224     0.7370    -0.0640 C.ar    
  22 C22            6.3448     0.7119    -0.0521 C.ar    
  23 O23            3.5295     2.9356    -0.0160 O.2     
  24 O24            5.6284     4.3005    -0.0342 O.3     
  25 C25            6.3980     5.5046    -0.0347 C.3     
  26 C26            5.4572     6.7112    -0.0274 C.3     
  27 H27           -0.8184     1.8242     0.0160 H       
  28 H28            1.5405     2.8076     0.0019 H       
  29 H29           -0.1879    -2.6218    -0.0095 H       
  30 H30            3.9890    -0.1189    -0.0354 H       
  31 H31            2.1030    -4.3462     0.5480 H       
  32 H32           -0.0623    -4.8298     1.6264 H       
  33 H33           -0.8392    -4.9800     0.0312 H       
  34 H34            1.4373    -6.7215     1.0822 H       
  35 H35           -0.2682    -7.2104     0.9408 H       
  36 H36            0.9308    -7.9514    -0.9652 H       
  37 H37            2.7365    -6.3092    -0.9076 H       
  38 H38            1.9853    -6.4952    -2.5103 H       
  39 H39            0.5264    -4.5466    -2.0601 H       
  40 H40            2.2425    -4.0983    -1.9034 H       
  41 H41            8.2370     4.0752    -0.0524 H       
  42 H42            9.4795     1.9560    -0.0743 H       
  43 H43            8.2768    -0.1898    -0.0741 H       
  44 H44            5.8211    -0.2326    -0.0525 H       
  45 H45            7.0307     5.5318     0.8524 H       
  46 H46            7.0225     5.5362    -0.9275 H       
  47 H47            4.8245     6.6840    -0.9146 H       
  48 H48            4.8327     6.6796     0.8653 H       
  49 H49            6.0443     7.6296    -0.0278 H       
@<TRIPOS>BOND
   1    1    2 1
   2    1    5 1
   3    1   27 1
   4    2    3 2
   5    3    4 1
   6    3    6 1
   7    4    5 2
   8    4    9 1
   9    5   28 1
  10    6    7 am
  11    6    8 2
  12    7   13 1
  13    7   29 1
  14    9   10 am
  15    9   30 1
  16   10   23 2
  17   10   12 1
  18   11   12 ar
  19   11   19 ar
  20   11   24 1
  21   12   22 ar
  22   13   14 1
  23   13   18 1
  24   13   31 1
  25   14   15 1
  26   14   32 1
  27   14   33 1
  28   15   16 1
  29   15   34 1
  30   15   35 1
  31   16   17 1
  32   16   36 1
  33   17   18 1
  34   17   37 1
  35   17   38 1
  36   18   39 1
  37   18   40 1
  38   19   20 ar
  39   19   41 1
  40   20   21 ar
  41   20   42 1
  42   21   22 ar
  43   21   43 1
  44   22   44 1
  45   24   25 1
  46   25   26 1
  47   25   45 1
  48   25   46 1
  49   26   47 1
  50   26   48 1
  51   26   49 1

#	End of record

