#	Name: ASD03240383
#	Creating user name:	WinNT
#	Creation time:	15. 06. 2019 20:34

#	Modifying user name:	WinNT
#	Modification time:	15. 06. 2019 20:34

#	Program:	/corina/corina34_cracker 3.40 0067  02.08.2006

@<TRIPOS>MOLECULE
ASD03240383
  71   77    0    0    0
SMALL
NO_CHARGES


@<TRIPOS>ATOM
   1 N1            -0.0167     1.3769     0.0096 N.pl3   
   2 C2             0.0021    -0.0041     0.0020 C.ar    
   3 N3             1.1520    -0.6689    -0.0125 N.ar    
   4 C4             1.1787    -1.9901    -0.0194 C.ar    
   5 N5             0.0862    -2.7216    -0.0125 N.ar    
   6 C6            -1.1161    -2.1479     0.0021 C.ar    
   7 C7            -1.1976    -0.7420     0.0154 C.ar    
   8 C8            -2.5689    -0.4073     0.0297 C.2     
   9 N9            -3.2627    -1.5096     0.0254 N.2     
  10 N10           -2.3980    -2.6114     0.0127 N.pl3   
  11 C11           -2.8018    -4.0196     0.0047 C.3     
  12 C12           -3.6291    -4.3218     1.2572 C.3     
  13 C13           -4.0991    -5.7776     1.2132 C.3     
  14 N14           -4.9070    -5.9962     0.0066 N.3     
  15 C15           -4.1198    -5.7579    -1.2099 C.3     
  16 C16           -3.6504    -4.3015    -1.2383 C.3     
  17 C17           -5.4901    -7.3445     0.0006 C.3     
  18 C18           -6.5000    -7.4501    -1.1130 C.ar    
  19 C19           -6.0990    -7.8681    -2.3693 C.ar    
  20 C20           -7.0189    -7.9663    -3.3931 C.ar    
  21 C21           -8.3555    -7.6436    -3.1591 C.ar    
  22 C22           -8.7537    -7.2233    -1.8902 C.ar    
  23 C23           -7.8254    -7.1340    -0.8732 C.ar    
  24 C24           -9.3479    -7.7465    -4.2538 C.ar    
  25 N25           -8.9874    -7.4555    -5.4965 N.ar    
  26 C26           -9.8332    -7.5320    -6.5014 C.ar    
  27 C27          -11.1561    -7.9256    -6.2985 C.ar    
  28 C28          -11.5833    -8.2425    -5.0070 C.ar    
  29 C29          -10.6605    -8.1569    -3.9665 C.ar    
  30 C30          -11.0605    -8.4823    -2.5765 C.ar    
  31 C31          -12.2059    -7.9097    -2.0258 C.ar    
  32 C32          -12.5734    -8.2163    -0.7314 C.ar    
  33 C33          -11.8072    -9.0897     0.0195 C.ar    
  34 C34          -10.6695    -9.6609    -0.5217 C.ar    
  35 C35          -10.2958    -9.3665    -1.8172 C.ar    
  36 C36          -12.0981    -8.0063    -7.4409 C.ar    
  37 C37          -11.6335    -7.7886    -8.7363 C.ar    
  38 C38          -12.5246    -7.8677    -9.7926 C.ar    
  39 C39          -13.8525    -8.1622    -9.5183 C.ar    
  40 C40          -14.2453    -8.3667    -8.2081 C.ar    
  41 N41          -13.3757    -8.2905    -7.2216 N.ar    
  42 H42            0.8167     1.8732     0.0043 H       
  43 H43           -0.8632     1.8504     0.0162 H       
  44 H44            2.1364    -2.4891    -0.0317 H       
  45 H45           -2.9743     0.5937     0.0423 H       
  46 H46           -1.9147    -4.6529    -0.0074 H       
  47 H47           -3.0165    -4.1639     2.1448 H       
  48 H48           -4.4951    -3.6607     1.2896 H       
  49 H49           -3.2326    -6.4386     1.1947 H       
  50 H50           -4.7005    -5.9919     2.0967 H       
  51 H51           -3.2531    -6.4189    -1.2170 H       
  52 H52           -4.7361    -5.9579    -2.0864 H       
  53 H53           -4.5167    -3.6400    -1.2451 H       
  54 H54           -3.0530    -4.1291    -2.1335 H       
  55 H55           -4.7013    -8.0808    -0.1533 H       
  56 H56           -5.9811    -7.5322     0.9554 H       
  57 H57           -5.0638    -8.1177    -2.5493 H       
  58 H58           -6.7046    -8.2921    -4.3736 H       
  59 H59           -9.7872    -6.9721    -1.7030 H       
  60 H60           -8.1325    -6.8090     0.1098 H       
  61 H61           -9.4984    -7.2861    -7.4983 H       
  62 H62          -12.6017    -8.5498    -4.8202 H       
  63 H63          -12.8045    -7.2272    -2.6108 H       
  64 H64          -13.4606    -7.7733    -0.3037 H       
  65 H65          -12.0982    -9.3262     1.0323 H       
  66 H66          -10.0752   -10.3421     0.0691 H       
  67 H67           -9.4075    -9.8133    -2.2388 H       
  68 H68          -10.5927    -7.5611    -8.9137 H       
  69 H69          -12.1938    -7.7036   -10.8075 H       
  70 H70          -14.5726    -8.2306   -10.3203 H       
  71 H71          -15.2781    -8.5960    -7.9913 H       
@<TRIPOS>BOND
   1    1    2 1
   2    1   42 1
   3    1   43 1
   4    2    3 ar
   5    2    7 ar
   6    3    4 ar
   7    4    5 ar
   8    4   44 1
   9    5    6 ar
  10    6    7 ar
  11    6   10 1
  12    7    8 1
  13    8    9 2
  14    8   45 1
  15    9   10 1
  16   10   11 1
  17   11   12 1
  18   11   16 1
  19   11   46 1
  20   12   13 1
  21   12   47 1
  22   12   48 1
  23   13   14 1
  24   13   49 1
  25   13   50 1
  26   14   15 1
  27   14   17 1
  28   15   16 1
  29   15   51 1
  30   15   52 1
  31   16   53 1
  32   16   54 1
  33   17   18 1
  34   17   55 1
  35   17   56 1
  36   18   19 ar
  37   18   23 ar
  38   19   20 ar
  39   19   57 1
  40   20   21 ar
  41   20   58 1
  42   21   22 ar
  43   21   24 1
  44   22   23 ar
  45   22   59 1
  46   23   60 1
  47   24   25 ar
  48   24   29 ar
  49   25   26 ar
  50   26   27 ar
  51   26   61 1
  52   27   28 ar
  53   27   36 1
  54   28   29 ar
  55   28   62 1
  56   29   30 1
  57   30   31 ar
  58   30   35 ar
  59   31   32 ar
  60   31   63 1
  61   32   33 ar
  62   32   64 1
  63   33   34 ar
  64   33   65 1
  65   34   35 ar
  66   34   66 1
  67   35   67 1
  68   36   37 ar
  69   36   41 ar
  70   37   38 ar
  71   37   68 1
  72   38   39 ar
  73   38   69 1
  74   39   40 ar
  75   39   70 1
  76   40   41 ar
  77   40   71 1

#	End of record

