#	Name: ASD03430124
#	Creating user name:	WinNT
#	Creation time:	15. 06. 2019 20:40

#	Modifying user name:	WinNT
#	Modification time:	15. 06. 2019 20:40

#	Program:	/corina/corina34_cracker 3.40 0067  02.08.2006

@<TRIPOS>MOLECULE
ASD03430124
  64   70    0    0    0
SMALL
NO_CHARGES


@<TRIPOS>ATOM
   1 C1             0.4668     1.1202    -0.5925 C.ar    
   2 C2             0.4335    -0.2500    -0.4557 C.ar    
   3 C3             1.6009    -0.9523    -0.2417 C.ar    
   4 C4             2.8187    -0.2830    -0.1516 C.ar    
   5 C5             2.8445     1.0987    -0.2991 C.ar    
   6 C6             1.6717     1.8095    -0.5239 C.ar    
   7 O7             3.8405    -1.1518     0.0936 O.3     
   8 C8             1.9017    -2.4174    -0.0785 C.3     
   9 C9             3.4250    -2.4858    -0.2562 C.3     
  10 C10            0.5930    -3.9921     0.9820 C.ar    
  11 C11            1.4698    -2.9478     1.2560 C.ar    
  12 C12            1.1846    -3.2618    -1.0929 C.2     
  13 N13            0.4465    -4.1505    -0.3986 N.am    
  14 O14            1.2559    -3.1632    -2.2997 O.2     
  15 C15            1.7694    -2.6057     2.5672 C.ar    
  16 C16            1.1885    -3.3145     3.6190 C.ar    
  17 C17            0.3187    -4.3515     3.3475 C.ar    
  18 C18            0.0207    -4.6911     2.0430 C.ar    
  19 C19            2.7053    -1.4896     2.8496 C.ar    
  20 C20           -0.6238     2.1499    -0.8143 C.3     
  21 C21            0.1048     3.4685    -0.4622 C.3     
  22 O22            1.4838     3.1458    -0.7094 O.3     
  23 C23           -0.4091    -5.1650    -1.0191 C.3     
  24 C24           -1.7919    -4.6007    -1.2210 C.2     
  25 C25           -2.2228    -3.9470    -2.3147 C.2     
  26 C26           -3.5721    -3.5975    -2.0779 C.2     
  27 C27           -3.8850    -4.0586    -0.8537 C.2     
  28 O28           -2.8046    -4.6704    -0.3417 O.3     
  29 C29            2.4267    -0.2037     2.3963 C.ar    
  30 N30            3.2548     0.7913     2.6449 N.ar    
  31 C31            4.3745     0.6118     3.3290 C.ar    
  32 C32            4.7207    -0.6465     3.8144 C.ar    
  33 C33            3.8776    -1.7145     3.5806 C.ar    
  34 N34            5.2146     1.6927     3.5650 N.pl3   
  35 C35            6.5065     1.4861     4.2243 C.3     
  36 C36            4.8087     3.0392     3.1547 C.3     
  37 F37           -6.0266    -5.0168    -0.4940 F       
  38 F38           -5.0383    -3.8621     1.2116 F       
  39 C39           -5.2227    -3.9174    -0.1741 C.3     
  40 F40           -5.8451    -2.7424    -0.6091 F       
  41 H41           -0.5083    -0.7751    -0.5159 H       
  42 H42            3.7855     1.6253    -0.2383 H       
  43 H43            3.6842    -2.7132    -1.2903 H       
  44 H44            3.8615    -3.2178     0.4233 H       
  45 H45            1.4179    -3.0529     4.6414 H       
  46 H46           -0.1313    -4.9011     4.1610 H       
  47 H47           -0.6613    -5.5043     1.8433 H       
  48 H48           -0.9521     2.1519    -1.8537 H       
  49 H49           -1.4644     1.9779    -0.1421 H       
  50 H50           -0.2252     4.2778    -1.1135 H       
  51 H51           -0.0495     3.7271     0.5854 H       
  52 H52            0.0099    -5.4534    -1.9832 H       
  53 H53           -0.4646    -6.0394    -0.3708 H       
  54 H54           -1.6481    -3.7301    -3.2030 H       
  55 H55           -4.2260    -3.0626    -2.7508 H       
  56 H56            1.5229    -0.0192     1.8346 H       
  57 H57            5.6358    -0.7845     4.3711 H       
  58 H58            4.1210    -2.7014     3.9454 H       
  59 H59            7.2708     1.2897     3.4723 H       
  60 H60            6.7733     2.3795     4.7888 H       
  61 H61            6.4365     0.6353     4.9021 H       
  62 H62            3.8260     2.9951     2.6851 H       
  63 H63            4.7646     3.6878     4.0296 H       
  64 H64            5.5334     3.4364     2.4440 H       
@<TRIPOS>BOND
   1    1    2 ar
   2    1    6 ar
   3    1   20 1
   4    2    3 ar
   5    2   41 1
   6    3    4 ar
   7    3    8 1
   8    4    5 ar
   9    4    7 1
  10    5    6 ar
  11    5   42 1
  12    6   22 1
  13    7    9 1
  14    8    9 1
  15    8   11 1
  16    8   12 1
  17    9   43 1
  18    9   44 1
  19   10   11 ar
  20   10   13 1
  21   10   18 ar
  22   11   15 ar
  23   12   13 am
  24   12   14 2
  25   13   23 1
  26   15   16 ar
  27   15   19 1
  28   16   17 ar
  29   16   45 1
  30   17   18 ar
  31   17   46 1
  32   18   47 1
  33   19   29 ar
  34   19   33 ar
  35   20   21 1
  36   20   48 1
  37   20   49 1
  38   21   22 1
  39   21   50 1
  40   21   51 1
  41   23   24 1
  42   23   52 1
  43   23   53 1
  44   24   25 2
  45   24   28 1
  46   25   26 1
  47   25   54 1
  48   26   27 2
  49   26   55 1
  50   27   28 1
  51   27   39 1
  52   29   30 ar
  53   29   56 1
  54   30   31 ar
  55   31   32 ar
  56   31   34 1
  57   32   33 ar
  58   32   57 1
  59   33   58 1
  60   34   35 1
  61   34   36 1
  62   35   59 1
  63   35   60 1
  64   35   61 1
  65   36   62 1
  66   36   63 1
  67   36   64 1
  68   37   39 1
  69   38   39 1
  70   39   40 1

#	End of record

