#	Name: ASD07931590
#	Creating user name:	WinNT
#	Creation time:	15. 06. 2019 21:13

#	Modifying user name:	WinNT
#	Modification time:	15. 06. 2019 21:13

#	Program:	/corina/corina34_cracker 3.40 0067  02.08.2006

@<TRIPOS>MOLECULE
ASD07931590
  56   60    0    0    0
SMALL
NO_CHARGES


@<TRIPOS>ATOM
   1 N1            -0.0180     1.4648     0.0132 N.am    
   2 C2             0.0017    -0.0043     0.0149 C.3     
   3 C3             0.8812    -0.4844     1.1737 C.3     
   4 C4             2.2636     0.1626     1.0616 C.3     
   5 C5             2.1260     1.6838     1.1576 C.3     
   6 C6             1.2607     2.1884    -0.0014 C.3     
   7 C7            -1.1868     2.1359     0.0193 C.2     
   8 O8            -1.1913     3.3480     0.1149 O.2     
   9 N9            -2.3505     1.4634    -0.0806 N.am    
  10 C10           -3.6229     2.1795     0.0393 C.3     
  11 C11            3.1558    -0.3412     2.1979 C.3     
  12 N12            4.5122     0.1839     2.0232 N.pl3   
  13 C13            4.8214     1.3612     2.5900 C.2     
  14 C14            6.0718     1.9146     2.4688 C.2     
  15 C15            7.1098     1.1974     1.6938 C.2     
  16 C16            6.7286    -0.0934     1.0894 C.ar    
  17 C17            7.6340    -0.8418     0.3437 C.ar    
  18 C18            7.2386    -2.0442    -0.2046 C.ar    
  19 C19            5.9455    -2.5053    -0.0145 C.ar    
  20 C20            5.0388    -1.7724     0.7222 C.ar    
  21 C21            5.4182    -0.5590     1.2861 C.ar    
  22 N22            7.9880     3.0900     2.4691 N.am    
  23 N23            8.1909     1.9223     1.7293 N.2     
  24 C24            6.7224     3.1339     2.9385 C.2     
  25 O25            6.2231     4.0156     3.6185 O.2     
  26 C26            8.9589     4.0745     2.6925 C.ar    
  27 C27           10.1847     3.7305     3.2531 C.ar    
  28 C28           11.1402     4.7057     3.4720 C.ar    
  29 C29           10.8774     6.0209     3.1340 C.ar    
  30 C30            9.6597     6.3650     2.5771 C.ar    
  31 C31            8.7024     5.3949     2.3498 C.ar    
  32 F32           10.4410     2.4459     3.5836 F       
  33 H33           -1.0121    -0.3832     0.1443 H       
  34 H34            0.4112    -0.3654    -0.9285 H       
  35 H35            0.4222    -0.2003     2.1207 H       
  36 H36            0.9823    -1.5687     1.1287 H       
  37 H37            2.7117    -0.1018     0.1038 H       
  38 H38            1.6553     1.9475     2.1047 H       
  39 H39            3.1131     2.1426     1.1012 H       
  40 H40            1.7729     2.0062    -0.9461 H       
  41 H41            1.0775     3.2563     0.1173 H       
  42 H42           -2.3455     0.5053    -0.2318 H       
  43 H43           -3.6886     2.9369    -0.7418 H       
  44 H44           -4.4478     1.4750    -0.0674 H       
  45 H45           -3.6791     2.6594     1.0164 H       
  46 H46            2.7548    -0.0013     3.1527 H       
  47 H47            3.1832    -1.4308     2.1825 H       
  48 H48            4.0665     1.8868     3.1559 H       
  49 H49            8.6416    -0.4827     0.1946 H       
  50 H50            7.9386    -2.6278    -0.7840 H       
  51 H51            5.6448    -3.4477    -0.4479 H       
  52 H52            4.0338    -2.1419     0.8628 H       
  53 H53           12.0922     4.4403     3.9074 H       
  54 H54           11.6253     6.7809     3.3058 H       
  55 H55            9.4581     7.3932     2.3152 H       
  56 H56            7.7536     5.6646     1.9100 H       
@<TRIPOS>BOND
   1    1    2 1
   2    1    6 1
   3    1    7 am
   4    2    3 1
   5    2   33 1
   6    2   34 1
   7    3    4 1
   8    3   35 1
   9    3   36 1
  10    4    5 1
  11    4   11 1
  12    4   37 1
  13    5    6 1
  14    5   38 1
  15    5   39 1
  16    6   40 1
  17    6   41 1
  18    7    8 2
  19    7    9 am
  20    9   10 1
  21    9   42 1
  22   10   43 1
  23   10   44 1
  24   10   45 1
  25   11   12 1
  26   11   46 1
  27   11   47 1
  28   12   13 1
  29   12   21 1
  30   13   14 2
  31   13   48 1
  32   14   15 1
  33   14   24 1
  34   15   16 1
  35   15   23 2
  36   16   17 ar
  37   16   21 ar
  38   17   18 ar
  39   17   49 1
  40   18   19 ar
  41   18   50 1
  42   19   20 ar
  43   19   51 1
  44   20   21 ar
  45   20   52 1
  46   22   23 1
  47   22   24 am
  48   22   26 1
  49   24   25 2
  50   26   27 ar
  51   26   31 ar
  52   27   28 ar
  53   27   32 1
  54   28   29 ar
  55   28   53 1
  56   29   30 ar
  57   29   54 1
  58   30   31 ar
  59   30   55 1
  60   31   56 1

#	End of record

