#	Name: ASD01410860
#	Creating user name:	WinNT
#	Creation time:	15. 06. 2019 19:18

#	Modifying user name:	WinNT
#	Modification time:	15. 06. 2019 19:18

#	Program:	/corina/corina34_cracker 3.40 0067  02.08.2006

@<TRIPOS>MOLECULE
ASD01410860
 127  134    0    0    0
SMALL
NO_CHARGES


@<TRIPOS>ATOM
   1 C1             0.9699     0.5111     1.5341 C.3     
   2 C2             0.2756    -0.6350     2.3059 C.3     
   3 N3             0.3350    -0.2157     3.7213 N.am    
   4 C4             0.3902     1.2505     3.7694 C.3     
   5 C5             0.4586     1.7547     2.3114 C.3     
   6 O6             2.3920     0.4006     1.6205 O.3     
   7 C7            -0.8476     1.7882     4.4402 C.2     
   8 O8            -1.6996     1.0246     4.8425 O.2     
   9 N9            -1.0078     3.1177     4.5929 N.am    
  10 C10            1.0964    -1.9222     2.1689 C.3     
  11 C11            0.5274    -2.5403     4.5722 C.3     
  12 C12            0.3723    -1.0582     4.7674 C.2     
  13 O13            0.2797    -0.6136     5.8920 O.2     
  14 C14           -0.6642    -3.2569     5.2106 C.3     
  15 C15           -0.8441    -2.7656     6.6484 C.3     
  16 C16           -1.9307    -2.9562     4.4066 C.3     
  17 C17           -2.2662     3.6477     5.1237 C.3     
  18 C18           -3.4975     3.3312     4.3144 C.2     
  19 N19           -3.4062     3.1853     2.9777 N.am    
  20 O20           -4.5705     3.2078     4.8661 O.2     
  21 S21           -4.7749     2.9531     2.0748 S.o2    
  22 C22           -5.7083     4.4972     2.2626 C.3     
  23 C23           -2.4185     3.7155     6.6445 C.3     
  24 C24           -2.2180     5.0004     5.8370 C.3     
  25 C25           -7.1013     4.5615     1.6331 C.3     
  26 C26           -6.9522     4.4669     3.1529 C.3     
  27 O27           -4.2975     2.8178     0.7432 O.2     
  28 O28           -5.4461     1.8825     2.7248 O.2     
  29 C29           -3.7885     3.4613     7.2187 C.2     
  30 C30           -3.9747     2.4701     8.0546 C.2     
  31 C31            3.1151     0.9655     0.6221 C.ar    
  32 C32            4.5288     0.9190     0.6313 C.ar    
  33 C33            2.4927     1.5977    -0.4359 C.ar    
  34 C34            3.2633     2.1700    -1.4500 C.ar    
  35 N35            4.5794     2.1239    -1.4273 N.ar    
  36 C36            5.2424     1.5220    -0.4324 C.ar    
  37 N37            2.6225     2.8068    -2.5152 N.pl3   
  38 C38            3.2302     3.4029    -3.5742 C.2     
  39 C39            6.6468     1.4823    -0.4232 C.ar    
  40 C40            7.3032     0.8565     0.6133 C.ar    
  41 C41            6.5878     0.2607     1.6557 C.ar    
  42 C42            5.2271     0.2891     1.6719 C.ar    
  43 Cl43           7.5495     2.2173    -1.7111 Cl      
  44 O44            8.6613     0.8175     0.6224 O.3     
  45 C45            9.2839     0.1541     1.7243 C.3     
  46 N46            1.2383     2.9395    -2.6856 N.2     
  47 C47            1.0231     3.5928    -3.7982 C.2     
  48 C48            2.2605     3.8967    -4.3777 C.2     
  49 C49           -0.3271     3.9531    -4.3623 C.3     
  50 C50           -0.6988     5.3724    -3.9283 C.3     
  51 C51           -0.2767     3.8836    -5.8898 C.3     
  52 C52           10.8041     0.2120     1.5616 C.3     
  53 N53           11.2526     1.6084     1.6449 N.3     
  54 C54           12.7181     1.6868     1.7311 C.3     
  55 C55           13.1446     3.1570     1.7558 C.3     
  56 O56           12.5018     3.8163     2.8501 O.3     
  57 C57           11.0737     3.7599     2.7977 C.3     
  58 C58           10.6263     2.2958     2.7836 C.3     
  59 N59            0.5890    -2.8860     3.1538 N.am    
  60 O60            0.2133    -4.4215     1.4377 O.3     
  61 C61           -0.2470    -5.7487     1.0700 C.3     
  62 C62           -1.7077    -5.9173     1.4929 C.3     
  63 C63           -0.1309    -5.9271    -0.4451 C.3     
  64 C64            0.6126    -6.8000     1.7747 C.3     
  65 C65            0.1760    -4.1021     2.7451 C.2     
  66 O66           -0.2300    -4.9103     3.5567 O.2     
  67 H67            0.6437     0.5370     0.4944 H       
  68 H68           -0.7538    -0.7705     1.9740 H       
  69 H69            1.2783     1.5704     4.3144 H       
  70 H70            1.1634     2.5814     2.2223 H       
  71 H71           -0.5298     2.0499     1.9590 H       
  72 H72           -0.2898     3.7236     4.3513 H       
  73 H73            0.9823    -2.3274     1.1634 H       
  74 H74            2.1477    -1.7122     2.3658 H       
  75 H75            1.4449    -2.8703     5.0594 H       
  76 H76           -0.4825    -4.3316     5.2140 H       
  77 H77           -1.6930    -3.2761     7.1032 H       
  78 H78            0.0582    -2.9798     7.2212 H       
  79 H79           -1.0258    -1.6908     6.6450 H       
  80 H80           -1.8025    -3.3062     3.3823 H       
  81 H81           -2.7795    -3.4667     4.8615 H       
  82 H82           -2.1123    -1.8815     4.4032 H       
  83 H83           -2.5389     3.2162     2.5445 H       
  84 H84           -5.1125     5.4099     2.2606 H       
  85 H85           -1.5825     3.3658     7.2502 H       
  86 H86           -1.2500     5.4959     5.9117 H       
  87 H87           -3.0770     5.6613     5.7213 H       
  88 H88           -7.4221     5.5167     1.2174 H       
  89 H89           -7.4569     3.6761     1.1062 H       
  90 H90           -7.2097     3.5192     3.6258 H       
  91 H91           -7.1749     5.3598     3.7370 H       
  92 H92           -4.6168     4.0963     6.9409 H       
  93 H93           -3.1465     1.8351     8.3324 H       
  94 H94           -4.9565     2.2879     8.4661 H       
  95 H95            1.4147     1.6489    -0.4791 H       
  96 H96            4.2947     3.4708    -3.7435 H       
  97 H97            7.1211    -0.2255     2.4592 H       
  98 H98            4.6860    -0.1751     2.4831 H       
  99 H99            8.9989     0.6474     2.6535 H       
 100 H100           8.9608    -0.8866     1.7514 H       
 101 H101           2.4140     4.4319    -5.3031 H       
 102 H102          -1.0747     3.2522    -3.9911 H       
 103 H103          -1.6754     5.6331    -4.3363 H       
 104 H104          -0.7347     5.4220    -2.8401 H       
 105 H105           0.0489     6.0734    -4.2995 H       
 106 H106          -0.0119     2.8724    -6.1990 H       
 107 H107          -1.2533     4.1442    -6.2978 H       
 108 H108           0.4710     4.5845    -6.2610 H       
 109 H109          11.2767    -0.3692     2.3534 H       
 110 H110          11.0818    -0.2015     0.5921 H       
 111 H111          13.0560     1.1945     2.6430 H       
 112 H112          13.1605     1.1940     0.8653 H       
 113 H113          14.2259     3.2204     1.8771 H       
 114 H114          12.8539     3.6360     0.8208 H       
 115 H115          10.6574     4.2593     3.6726 H       
 116 H116          10.7228     4.2565     1.8930 H       
 117 H117           9.5418     2.2476     2.6861 H       
 118 H118          10.9307     1.8133     3.7123 H       
 119 H119          -2.3201    -5.1683     0.9909 H       
 120 H120          -2.0532    -6.9135     1.2169 H       
 121 H121          -1.7904    -5.7901     2.5723 H       
 122 H122           0.9098    -5.8070    -0.7464 H       
 123 H123          -0.4764    -6.9234    -0.7212 H       
 124 H124          -0.7433    -5.1781    -0.9472 H       
 125 H125           0.5299    -6.6729     2.8541 H       
 126 H126           0.2671    -7.7963     1.4987 H       
 127 H127           1.6532    -6.6799     1.4734 H       
@<TRIPOS>BOND
   1    1    2 1
   2    1    6 1
   3    1    5 1
   4    1   67 1
   5    2    3 1
   6    2   10 1
   7    2   68 1
   8    3    4 1
   9    3   12 am
  10    4    5 1
  11    4    7 1
  12    4   69 1
  13    5   70 1
  14    5   71 1
  15    6   31 1
  16    7    8 2
  17    7    9 am
  18    9   17 1
  19    9   72 1
  20   10   59 1
  21   10   73 1
  22   10   74 1
  23   11   12 1
  24   11   14 1
  25   11   59 1
  26   11   75 1
  27   12   13 2
  28   14   15 1
  29   14   16 1
  30   14   76 1
  31   15   77 1
  32   15   78 1
  33   15   79 1
  34   16   80 1
  35   16   81 1
  36   16   82 1
  37   17   18 1
  38   17   23 1
  39   17   24 1
  40   18   19 am
  41   18   20 2
  42   19   21 am
  43   19   83 1
  44   21   22 1
  45   21   27 2
  46   21   28 2
  47   22   25 1
  48   22   26 1
  49   22   84 1
  50   23   24 1
  51   23   29 1
  52   23   85 1
  53   24   86 1
  54   24   87 1
  55   25   26 1
  56   25   88 1
  57   25   89 1
  58   26   90 1
  59   26   91 1
  60   29   30 2
  61   29   92 1
  62   30   93 1
  63   30   94 1
  64   31   32 ar
  65   31   33 ar
  66   32   36 ar
  67   32   42 ar
  68   33   34 ar
  69   33   95 1
  70   34   35 ar
  71   34   37 1
  72   35   36 ar
  73   36   39 ar
  74   37   46 1
  75   37   38 1
  76   38   48 2
  77   38   96 1
  78   39   40 ar
  79   39   43 1
  80   40   41 ar
  81   40   44 1
  82   41   42 ar
  83   41   97 1
  84   42   98 1
  85   44   45 1
  86   45   52 1
  87   45   99 1
  88   45  100 1
  89   46   47 2
  90   47   48 1
  91   47   49 1
  92   48  101 1
  93   49   50 1
  94   49   51 1
  95   49  102 1
  96   50  103 1
  97   50  104 1
  98   50  105 1
  99   51  106 1
 100   51  107 1
 101   51  108 1
 102   52   53 1
 103   52  109 1
 104   52  110 1
 105   53   54 1
 106   53   58 1
 107   54   55 1
 108   54  111 1
 109   54  112 1
 110   55   56 1
 111   55  113 1
 112   55  114 1
 113   56   57 1
 114   57   58 1
 115   57  115 1
 116   57  116 1
 117   58  117 1
 118   58  118 1
 119   59   65 am
 120   60   61 1
 121   60   65 1
 122   61   62 1
 123   61   63 1
 124   61   64 1
 125   62  119 1
 126   62  120 1
 127   62  121 1
 128   63  122 1
 129   63  123 1
 130   63  124 1
 131   64  125 1
 132   64  126 1
 133   64  127 1
 134   65   66 2

#	End of record

