#	Name: ASD01140480
#	Creating user name:	WinNT
#	Creation time:	15. 06. 2019 19:00

#	Modifying user name:	WinNT
#	Modification time:	15. 06. 2019 19:00

#	Program:	/corina/corina34_cracker 3.40 0067  02.08.2006

@<TRIPOS>MOLECULE
ASD01140480
  40   42    0    0    0
SMALL
NO_CHARGES


@<TRIPOS>ATOM
   1 C1            -0.0284     1.0075    -0.2687 C.ar    
   2 C2             0.1646    -0.3504    -0.0948 C.ar    
   3 C3             1.4411    -0.8499     0.0825 C.ar    
   4 C4             2.5250     0.0084     0.0854 C.ar    
   5 C5             2.3321     1.3658    -0.0894 C.ar    
   6 C6             1.0551     1.8656    -0.2653 C.ar    
   7 C7             1.6514    -2.3299     0.2731 C.3     
   8 C8             3.5135     2.3015    -0.0852 C.3     
   9 S9             4.1465     2.4815    -1.7714 S.3     
  10 C10            5.4817     3.5936    -1.4798 C.2     
  11 N11            6.3002     4.0575    -2.4817 N.am    
  12 N12            5.7737     4.0488    -0.3056 N.2     
  13 C13            6.9316     4.9496    -0.3853 C.3     
  14 C14            7.2983     4.9591    -1.8825 C.3     
  15 C15            6.2058     3.7411    -3.7884 C.2     
  16 C16            7.0797     4.4074    -4.7743 C.ar    
  17 O17            5.4011     2.9072    -4.1552 O.2     
  18 C18            8.9184     5.8709    -5.2710 C.ar    
  19 C19            8.1059     5.2517    -4.3450 C.ar    
  20 C20            6.8876     4.1917    -6.1431 C.ar    
  21 C21            7.7109     4.8199    -7.0593 C.ar    
  22 C22            8.7203     5.6584    -6.6244 C.ar    
  23 F23            5.9015     3.3720    -6.5682 F       
  24 F24            0.4161    -2.9854     0.2330 F       
  25 F25            2.4725    -2.8196    -0.7483 F       
  26 F26            2.2608    -2.5587     1.5114 F       
  27 H27           -1.0255     1.3972    -0.4117 H       
  28 H28           -0.6821    -1.0209    -0.0970 H       
  29 H29            3.5224    -0.3817     0.2246 H       
  30 H30            0.9043     2.9263    -0.4011 H       
  31 H31            3.2039     3.2759     0.2926 H       
  32 H32            4.2963     1.8954     0.5553 H       
  33 H33            6.6588     5.9520    -0.0551 H       
  34 H34            7.7583     4.5623     0.2101 H       
  35 H35            8.3061     4.5734    -2.0362 H       
  36 H36            7.2036     5.9645    -2.2928 H       
  37 H37            9.7121     6.5239    -4.9393 H       
  38 H38            8.2625     5.4196    -3.2897 H       
  39 H39            7.5652     4.6550    -8.1167 H       
  40 H40            9.3603     6.1470    -7.3442 H       
@<TRIPOS>BOND
   1    1    2 ar
   2    1    6 ar
   3    1   27 1
   4    2    3 ar
   5    2   28 1
   6    3    4 ar
   7    3    7 1
   8    4    5 ar
   9    4   29 1
  10    5    6 ar
  11    5    8 1
  12    6   30 1
  13    7   24 1
  14    7   25 1
  15    7   26 1
  16    8    9 1
  17    8   31 1
  18    8   32 1
  19    9   10 1
  20   10   12 2
  21   10   11 1
  22   11   14 1
  23   11   15 am
  24   12   13 1
  25   13   14 1
  26   13   33 1
  27   13   34 1
  28   14   35 1
  29   14   36 1
  30   15   16 1
  31   15   17 2
  32   16   20 ar
  33   16   19 ar
  34   18   19 ar
  35   18   22 ar
  36   18   37 1
  37   19   38 1
  38   20   21 ar
  39   20   23 1
  40   21   22 ar
  41   21   39 1
  42   22   40 1

#	End of record

