#	Name: ASD01810197
#	Creating user name:	WinNT
#	Creation time:	15. 06. 2019 19:24

#	Modifying user name:	WinNT
#	Modification time:	15. 06. 2019 19:24

#	Program:	/corina/corina34_cracker 3.40 0067  02.08.2006

@<TRIPOS>MOLECULE
ASD01810197
  45   48    0    0    0
SMALL
NO_CHARGES


@<TRIPOS>ATOM
   1 C1            -0.0167     1.3820     0.0096 C.ar    
   2 C2             0.0021    -0.0041     0.0020 C.ar    
   3 C3             1.1959    -0.6932    -0.0127 C.ar    
   4 C4             2.4016     0.0019    -0.0200 C.ar    
   5 C5             2.3831     1.4075    -0.0128 C.ar    
   6 C6             1.1665     2.0939     0.0022 C.ar    
   7 N7             3.6010    -0.6771    -0.0337 N.pl3   
   8 C8             4.7870    -0.0549    -0.0404 C.2     
   9 C9             4.8957     1.3208    -0.0340 C.2     
  10 C10            3.6667     2.1313    -0.0207 C.2     
  11 O11            3.7091     3.3491    -0.0150 O.2     
  12 C12            6.2161     1.9660    -0.0412 C.2     
  13 O13            6.3092     3.3109    -0.0348 O.3     
  14 O14            7.2244     1.2870    -0.0529 O.2     
  15 C15            3.5775    -2.1419    -0.0409 C.3     
  16 C16            3.5572    -2.6371    -1.4640 C.ar    
  17 C17            4.7474    -2.8826    -2.1251 C.ar    
  18 C18            4.7352    -3.3357    -3.4285 C.ar    
  19 C19            3.5200    -3.5464    -4.0790 C.ar    
  20 C20            2.3236    -3.2975    -3.4073 C.ar    
  21 C21            2.3485    -2.8496    -2.1024 C.ar    
  22 C22            3.5000    -4.0323    -5.4787 C.ar    
  23 C23            2.6981    -5.1319    -5.8347 C.ar    
  24 C24            2.6895    -5.5785    -7.1570 C.ar    
  25 C25            3.4642    -4.9420    -8.1041 C.ar    
  26 C26            4.2538    -3.8596    -7.7520 C.ar    
  27 C27            4.2704    -3.4000    -6.4506 C.ar    
  28 C28            1.8962    -5.7889    -4.8469 C.1     
  29 N29            1.2601    -6.3102    -4.0632 N.1     
  30 F30            1.1476     3.4448     0.0091 F       
  31 H31           -0.9604     1.9071     0.0170 H       
  32 H32           -0.9295    -0.5505     0.0080 H       
  33 H33            1.1956    -1.7731    -0.0181 H       
  34 H34            5.6884    -0.6497    -0.0508 H       
  35 H35            7.1990     3.6894    -0.0400 H       
  36 H36            4.4660    -2.5220     0.4634 H       
  37 H37            2.6863    -2.4936     0.4789 H       
  38 H38            5.6880    -2.7191    -1.6202 H       
  39 H39            5.6650    -3.5264    -3.9438 H       
  40 H40            1.3794    -3.4586    -3.9062 H       
  41 H41            1.4225    -2.6569    -1.5810 H       
  42 H42            2.0768    -6.4222    -7.4383 H       
  43 H43            3.4555    -5.2899    -9.1265 H       
  44 H44            4.8567    -3.3691    -8.5019 H       
  45 H45            4.8884    -2.5553    -6.1843 H       
@<TRIPOS>BOND
   1    1    2 ar
   2    1    6 ar
   3    1   31 1
   4    2    3 ar
   5    2   32 1
   6    3    4 ar
   7    3   33 1
   8    4    5 ar
   9    4    7 1
  10    5    6 ar
  11    5   10 1
  12    6   30 1
  13    7    8 1
  14    7   15 1
  15    8    9 2
  16    8   34 1
  17    9   10 1
  18    9   12 1
  19   10   11 2
  20   12   13 1
  21   12   14 2
  22   13   35 1
  23   15   16 1
  24   15   36 1
  25   15   37 1
  26   16   17 ar
  27   16   21 ar
  28   17   18 ar
  29   17   38 1
  30   18   19 ar
  31   18   39 1
  32   19   20 ar
  33   19   22 1
  34   20   21 ar
  35   20   40 1
  36   21   41 1
  37   22   23 ar
  38   22   27 ar
  39   23   24 ar
  40   23   28 1
  41   24   25 ar
  42   24   42 1
  43   25   26 ar
  44   25   43 1
  45   26   27 ar
  46   26   44 1
  47   27   45 1
  48   28   29 3

#	End of record

