#	Name: ASD02030309
#	Creating user name:	WinNT
#	Creation time:	15. 06. 2019 20:15

#	Modifying user name:	WinNT
#	Modification time:	15. 06. 2019 20:15

#	Program:	/corina/corina34_cracker 3.40 0067  02.08.2006

@<TRIPOS>MOLECULE
ASD02030309
  52   55    0    0    0
SMALL
NO_CHARGES


@<TRIPOS>ATOM
   1 N1            -0.1137     1.6871    -0.1980 N.am    
   2 C2            -0.2070     0.2236    -0.2933 C.3     
   3 C3            -1.0358    -0.2927     0.8894 C.3     
   4 N4            -2.2755     0.4922     0.9723 N.am    
   5 C5            -2.1822     1.9557     1.0676 C.3     
   6 C6            -1.3533     2.4717    -0.1094 C.3     
   7 C7             1.0874     2.2986    -0.1863 C.2     
   8 C8             2.3260     1.4937    -0.1287 C.2     
   9 N9             3.5464     1.9614     0.0216 N.2     
  10 N10            2.4034     0.1530    -0.2148 N.2     
  11 C11            3.6679    -0.1705    -0.1205 C.2     
  12 N12            4.3709     0.9712     0.0270 N.pl3   
  13 C13            5.7626     1.0646     0.1623 C.ar    
  14 O14            1.1521     3.5119    -0.2231 O.2     
  15 C15           -3.4766    -0.1193     0.9606 C.2     
  16 C16           -3.5545    -1.5985     0.9380 C.ar    
  17 O17           -4.4955     0.5428     0.9686 O.2     
  18 C18           -4.7537    -2.2206     0.6037 C.ar    
  19 C19            6.3656     2.3069     0.3078 C.ar    
  20 C20            7.7374     2.3958     0.4409 C.ar    
  21 C21            8.5103     1.2492     0.4292 C.ar    
  22 C22            7.9128     0.0106     0.2839 C.ar    
  23 C23            6.5409    -0.0852     0.1567 C.ar    
  24 N24           -2.4778    -2.3187     1.2317 N.ar    
  25 C25           -2.5056    -3.6376     1.2225 C.ar    
  26 C26           -3.6742    -4.3232     0.9016 C.ar    
  27 C27           -4.8149    -3.6065     0.5854 C.ar    
  28 O28           -1.3823    -4.3340     1.5290 O.3     
  29 C29           -0.2151    -3.5744     1.8491 C.3     
  30 C30           -1.0142     3.9475     0.1091 C.3     
  31 H31           -0.6938    -0.0518    -1.2289 H       
  32 H32            0.7924    -0.2099    -0.2566 H       
  33 H33           -1.2782    -1.3442     0.7350 H       
  34 H34           -0.4675    -0.1775     1.8123 H       
  35 H35           -3.1816     2.3892     1.0309 H       
  36 H36           -1.6955     2.2311     2.0033 H       
  37 H37           -1.9194     2.3568    -1.0338 H       
  38 H38            4.0747    -1.1705    -0.1526 H       
  39 H39           -5.6261    -1.6317     0.3619 H       
  40 H40            5.7625     3.2028     0.3167 H       
  41 H41            8.2070     3.3618     0.5538 H       
  42 H42            9.5829     1.3212     0.5334 H       
  43 H43            8.5192    -0.8831     0.2745 H       
  44 H44            6.0748    -1.0529     0.0432 H       
  45 H45           -3.6892    -5.4031     0.8958 H       
  46 H46           -5.7337    -4.1149     0.3330 H       
  47 H47            0.6089    -4.2516     2.0737 H       
  48 H48            0.0529    -2.9450     1.0005 H       
  49 H49           -0.4167    -2.9470     2.7174 H       
  50 H50           -0.2704     4.0360     0.9010 H       
  51 H51           -0.6147     4.3690    -0.8133 H       
  52 H52           -1.9158     4.4890     0.3953 H       
@<TRIPOS>BOND
   1    1    2 1
   2    1    7 am
   3    1    6 1
   4    2    3 1
   5    2   31 1
   6    2   32 1
   7    3    4 1
   8    3   33 1
   9    3   34 1
  10    4    5 1
  11    4   15 am
  12    5    6 1
  13    5   35 1
  14    5   36 1
  15    6   30 1
  16    6   37 1
  17    7    8 1
  18    7   14 2
  19    8    9 2
  20    8   10 1
  21    9   12 1
  22   10   11 2
  23   11   12 1
  24   11   38 1
  25   12   13 1
  26   13   19 ar
  27   13   23 ar
  28   15   16 1
  29   15   17 2
  30   16   24 ar
  31   16   18 ar
  32   18   27 ar
  33   18   39 1
  34   19   20 ar
  35   19   40 1
  36   20   21 ar
  37   20   41 1
  38   21   22 ar
  39   21   42 1
  40   22   23 ar
  41   22   43 1
  42   23   44 1
  43   24   25 ar
  44   25   26 ar
  45   25   28 1
  46   26   27 ar
  47   26   45 1
  48   27   46 1
  49   28   29 1
  50   29   47 1
  51   29   48 1
  52   29   49 1
  53   30   50 1
  54   30   51 1
  55   30   52 1

#	End of record

