#	Name: ASD01208912
#	Creating user name:	WinNT
#	Creation time:	15. 06. 2019 19:10

#	Modifying user name:	WinNT
#	Modification time:	15. 06. 2019 19:10

#	Program:	/corina/corina34_cracker 3.40 0067  02.08.2006

@<TRIPOS>MOLECULE
ASD01208912
  62   66    0    0    0
SMALL
NO_CHARGES


@<TRIPOS>ATOM
   1 C1            -0.2611     1.7876     0.5558 C.2     
   2 C2            -0.2301     0.3275     0.3274 C.ar    
   3 C3             0.9375    -0.2845    -0.1308 C.ar    
   4 C4             0.9624    -1.6528    -0.3430 C.ar    
   5 C5            -0.1714    -2.4152    -0.1014 C.ar    
   6 C6            -1.3343    -1.8110     0.3542 C.ar    
   7 C7            -1.3662    -0.4435     0.5746 C.ar    
   8 O8             0.7314     2.4570     0.3446 O.2     
   9 N9            -1.3913     2.3774     0.9929 N.am    
  10 S10           -2.7811     4.6257     1.7588 S.3     
  11 C11           -1.4204     3.7494     1.2076 C.2     
  12 N12           -0.4197     4.5519     1.0196 N.2     
  13 C13           -0.6233     5.8308     1.2745 C.2     
  14 C14           -1.8546     6.1229     1.6980 C.2     
  15 O15           -2.4421    -2.5622     0.5889 O.3     
  16 C16           -3.4412    -2.5295    -0.3305 C.ar    
  17 C17           -4.6130    -3.2412    -0.1058 C.ar    
  18 C18           -5.6290    -3.2107    -1.0360 C.ar    
  19 C19           -5.4796    -2.4628    -2.2063 C.ar    
  20 C20           -4.2998    -1.7486    -2.4284 C.ar    
  21 C21           -3.2909    -1.7798    -1.4905 C.ar    
  22 O22           -6.5551    -1.7510    -4.3727 O.3     
  23 C23           -6.5656    -2.4277    -3.2061 C.2     
  24 N24           -7.7200    -3.0504    -3.1230 N.2     
  25 N25           -8.4196    -2.7951    -4.1720 N.2     
  26 C26           -7.7406    -1.9996    -4.9665 C.2     
  27 C27           -8.1925    -1.4731    -6.2708 C.ar    
  28 C28           -9.4520    -1.8150    -6.7667 C.ar    
  29 C29           -9.8677    -1.3199    -7.9853 C.ar    
  30 C30           -9.0394    -0.4865    -8.7159 C.ar    
  31 C31           -7.7898    -0.1439    -8.2306 C.ar    
  32 C32           -7.3643    -0.6267    -7.0104 C.ar    
  33 O33            2.0990    -2.2497    -0.7892 O.3     
  34 C34            3.1024    -3.9970    -2.1236 C.3     
  35 C35            2.0212    -3.6421    -1.1009 C.3     
  36 C36            2.2350    -4.4626     0.1727 C.3     
  37 O37            4.3922    -3.8124    -1.5367 O.3     
  38 C38            5.4787    -4.1181    -2.4131 C.3     
  39 H39            1.8203     0.3082    -0.3199 H       
  40 H40           -0.1487    -3.4819    -0.2686 H       
  41 H41           -2.2705     0.0255     0.9332 H       
  42 H42           -2.1844     1.8438     1.1577 H       
  43 H43            0.1445     6.5801     1.1506 H       
  44 H44           -2.2195     7.1057     1.9578 H       
  45 H45           -4.7276    -3.8195     0.7991 H       
  46 H46           -6.5395    -3.7646    -0.8608 H       
  47 H47           -4.1803    -1.1694    -3.3321 H       
  48 H48           -2.3802    -1.2244    -1.6594 H       
  49 H49          -10.0993    -2.4660    -6.1978 H       
  50 H50          -10.8418    -1.5836    -8.3701 H       
  51 H51           -9.3696    -0.1019    -9.6696 H       
  52 H52           -7.1480     0.5067    -8.8061 H       
  53 H53           -6.3907    -0.3544    -6.6302 H       
  54 H54            2.9872    -5.0372    -2.4280 H       
  55 H55            3.0041    -3.3502    -2.9955 H       
  56 H56            1.0393    -3.8669    -1.5174 H       
  57 H57            1.4647    -4.2097     0.9013 H       
  58 H58            2.1756    -5.5247    -0.0651 H       
  59 H59            3.2169    -4.2378     0.5892 H       
  60 H60            5.4297    -3.4739    -3.2910 H       
  61 H61            6.4224    -3.9527    -1.8933 H       
  62 H62            5.4128    -5.1609    -2.7235 H       
@<TRIPOS>BOND
   1    1    2 1
   2    1    8 2
   3    1    9 am
   4    2    3 ar
   5    2    7 ar
   6    3    4 ar
   7    3   39 1
   8    4    5 ar
   9    4   33 1
  10    5    6 ar
  11    5   40 1
  12    6    7 ar
  13    6   15 1
  14    7   41 1
  15    9   11 1
  16    9   42 1
  17   10   11 1
  18   10   14 1
  19   11   12 2
  20   12   13 1
  21   13   14 2
  22   13   43 1
  23   14   44 1
  24   15   16 1
  25   16   17 ar
  26   16   21 ar
  27   17   18 ar
  28   17   45 1
  29   18   19 ar
  30   18   46 1
  31   19   20 ar
  32   19   23 1
  33   20   21 ar
  34   20   47 1
  35   21   48 1
  36   22   23 1
  37   22   26 1
  38   23   24 2
  39   24   25 1
  40   25   26 2
  41   26   27 1
  42   27   28 ar
  43   27   32 ar
  44   28   29 ar
  45   28   49 1
  46   29   30 ar
  47   29   50 1
  48   30   31 ar
  49   30   51 1
  50   31   32 ar
  51   31   52 1
  52   32   53 1
  53   33   35 1
  54   34   35 1
  55   34   37 1
  56   34   54 1
  57   34   55 1
  58   35   36 1
  59   35   56 1
  60   36   57 1
  61   36   58 1
  62   36   59 1
  63   37   38 1
  64   38   60 1
  65   38   61 1
  66   38   62 1

#	End of record

