#	Name: ASD01883552
#	Creating user name:	WinNT
#	Creation time:	15. 06. 2019 19:46

#	Modifying user name:	WinNT
#	Modification time:	15. 06. 2019 19:46

#	Program:	/corina/corina34_cracker 3.40 0067  02.08.2006

@<TRIPOS>MOLECULE
ASD01883552
  49   51    0    0    0
SMALL
NO_CHARGES


@<TRIPOS>ATOM
   1 C1            -0.0171     1.4071     0.0098 C.2     
   2 C2            -0.8717     1.4205    -1.1132 C.2     
   3 C3            -2.0207     0.7137    -1.0894 C.2     
   4 N4            -2.3701    -0.0149     0.0042 N.am    
   5 C5            -1.5828    -0.0533     1.0951 C.2     
   6 C6            -0.3781     0.6573     1.1179 C.2     
   7 O7            -1.9184    -0.7148     2.0656 O.2     
   8 N8             1.1653     2.1265     0.0024 N.pl3   
   9 C9             1.1493     3.5921    -0.0998 C.3     
  10 C10            2.0460     4.0148    -1.2677 C.3     
  11 C11            3.4404     3.4132    -1.0786 C.3     
  12 C12            3.3425     1.8859    -1.0731 C.3     
  13 C13            2.4602     1.4395     0.1026 C.3     
  14 C14           -3.6252    -0.7704    -0.0048 C.3     
  15 C15            4.3351     3.8548    -2.2081 C.ar    
  16 C16            5.4842     4.5784    -1.9382 C.ar    
  17 C17            6.3059     4.9839    -2.9760 C.ar    
  18 C18            5.9775     4.6654    -4.2822 C.ar    
  19 C19            4.8276     3.9415    -4.5497 C.ar    
  20 C20            4.0111     3.5323    -3.5126 C.ar    
  21 C21           -3.3696    -2.1774    -0.5488 C.3     
  22 C22           -4.6804    -2.9665    -0.5583 C.3     
  23 C23           -4.4247    -4.3735    -1.1023 C.3     
  24 Cl24           0.6432     0.6129     2.5210 Cl      
  25 F25            5.8033     4.8890    -0.6627 F       
  26 F26            6.7783     5.0609    -5.2959 F       
  27 H27           -0.6070     1.9951    -1.9886 H       
  28 H28           -2.6721     0.7270    -1.9508 H       
  29 H29            0.1301     3.9347    -0.2790 H       
  30 H30            1.5257     4.0271     0.8260 H       
  31 H31            1.6184     3.6550    -2.2035 H       
  32 H32            2.1195     5.1020    -1.2950 H       
  33 H33            3.8573     3.7536    -0.1308 H       
  34 H34            2.9026     1.5462    -2.0107 H       
  35 H35            4.3387     1.4579    -0.9618 H       
  36 H36            2.9459     1.6993     1.0432 H       
  37 H37            2.3053     0.3616     0.0546 H       
  38 H38           -4.0155    -0.8388     1.0106 H       
  39 H39           -4.3509    -0.2618    -0.6395 H       
  40 H40            7.2023     5.5487    -2.7665 H       
  41 H41            4.5710     3.6931    -5.5690 H       
  42 H42            3.1145     2.9679    -3.7222 H       
  43 H43           -2.9793    -2.1090    -1.5642 H       
  44 H44           -2.6439    -2.6860     0.0859 H       
  45 H45           -5.0707    -3.0349     0.4571 H       
  46 H46           -5.4061    -2.4579    -1.1930 H       
  47 H47           -4.0345    -4.3051    -2.1177 H       
  48 H48           -3.6991    -4.8821    -0.4676 H       
  49 H49           -5.3586    -4.9356    -1.1090 H       
@<TRIPOS>BOND
   1    1    2 1
   2    1    8 1
   3    1    6 2
   4    2    3 2
   5    2   27 1
   6    3    4 1
   7    3   28 1
   8    4    5 am
   9    4   14 1
  10    5    6 1
  11    5    7 2
  12    6   24 1
  13    8    9 1
  14    8   13 1
  15    9   10 1
  16    9   29 1
  17    9   30 1
  18   10   11 1
  19   10   31 1
  20   10   32 1
  21   11   15 1
  22   11   12 1
  23   11   33 1
  24   12   13 1
  25   12   34 1
  26   12   35 1
  27   13   36 1
  28   13   37 1
  29   14   21 1
  30   14   38 1
  31   14   39 1
  32   15   16 ar
  33   15   20 ar
  34   16   17 ar
  35   16   25 1
  36   17   18 ar
  37   17   40 1
  38   18   19 ar
  39   18   26 1
  40   19   20 ar
  41   19   41 1
  42   20   42 1
  43   21   22 1
  44   21   43 1
  45   21   44 1
  46   22   23 1
  47   22   45 1
  48   22   46 1
  49   23   47 1
  50   23   48 1
  51   23   49 1

#	End of record

