#	Name: ASD01914034
#	Creating user name:	WinNT
#	Creation time:	15. 06. 2019 20:02

#	Modifying user name:	WinNT
#	Modification time:	15. 06. 2019 20:02

#	Program:	/corina/corina34_cracker 3.40 0067  02.08.2006

@<TRIPOS>MOLECULE
ASD01914034
  50   52    0    0    0
SMALL
NO_CHARGES


@<TRIPOS>ATOM
   1 C1            -0.0167     1.3779     0.0096 C.ar    
   2 C2             0.0021    -0.0041     0.0020 C.ar    
   3 N3             1.1428    -0.6656    -0.0124 N.ar    
   4 C4             2.3677     1.3415    -0.0133 C.ar    
   5 C5             1.1834     2.0708     0.0019 C.ar    
   6 O6             3.5688     1.9776    -0.0214 O.3     
   7 C7             4.7379     1.1560    -0.0370 C.3     
   8 C8             5.9658     2.0296    -0.0440 C.ar    
   9 N9             7.1603     1.4698    -0.0584 N.ar    
  10 C10            8.2646     2.1873    -0.0651 C.ar    
  11 C11            8.2052     3.5812    -0.0566 C.ar    
  12 C12            6.9515     4.2046    -0.0413 C.ar    
  13 C13            5.8219     3.4056    -0.0409 C.ar    
  14 C14            9.4450     4.3865    -0.0631 C.2     
  15 N15           10.6458     3.7747    -0.0774 N.am    
  16 O16            9.3814     5.6003    -0.0556 O.2     
  17 C17            2.3054    -0.0445    -0.0202 C.ar    
  18 C18           11.8744     4.5727    -0.0839 C.3     
  19 C19           12.2207     4.9642    -1.5219 C.3     
  20 C20           13.0196     3.7507     0.5107 C.3     
  21 C21           14.3027     4.5840     0.5040 C.3     
  22 C22           15.4479     3.7620     1.0986 C.3     
  23 C23           15.1016     3.3705     2.5366 C.3     
  24 C24           13.8185     2.5371     2.5434 C.3     
  25 C25           12.6733     3.3592     1.9487 C.3     
  26 H26           -0.9556     1.9115     0.0170 H       
  27 H27           -0.9300    -0.5495     0.0083 H       
  28 H28            1.1987     3.1507     0.0079 H       
  29 H29            4.7482     0.5219     0.8496 H       
  30 H30            4.7312     0.5315    -0.9303 H       
  31 H31            9.2245     1.6925    -0.0769 H       
  32 H32            6.8683     5.2814    -0.0343 H       
  33 H33            4.8382     3.8514    -0.0293 H       
  34 H34           10.6966     2.8061    -0.0834 H       
  35 H35            3.2189    -0.6205    -0.0320 H       
  36 H36           11.7259     5.4732     0.5121 H       
  37 H37           12.3692     4.0637    -2.1178 H       
  38 H38           11.4049     5.5498    -1.9455 H       
  39 H39           13.1348     5.5579    -1.5267 H       
  40 H40           13.1681     2.8502    -0.0852 H       
  41 H41           14.5494     4.8629    -0.5205 H       
  42 H42           14.1543     5.4845     1.0999 H       
  43 H43           15.5964     2.8615     0.5027 H       
  44 H44           16.3620     4.3557     1.0938 H       
  45 H45           15.9175     2.7849     2.9602 H       
  46 H46           14.9532     4.2710     3.1326 H       
  47 H47           13.9670     1.6367     1.9474 H       
  48 H48           13.5718     2.2583     3.5678 H       
  49 H49           12.5249     4.2597     2.5447 H       
  50 H50           11.7592     2.7655     1.9535 H       
@<TRIPOS>BOND
   1    1    2 ar
   2    1    5 ar
   3    1   26 1
   4    2    3 ar
   5    2   27 1
   6    3   17 ar
   7    4    5 ar
   8    4    6 1
   9    4   17 ar
  10    5   28 1
  11    6    7 1
  12    7    8 1
  13    7   29 1
  14    7   30 1
  15    8    9 ar
  16    8   13 ar
  17    9   10 ar
  18   10   11 ar
  19   10   31 1
  20   11   12 ar
  21   11   14 1
  22   12   13 ar
  23   12   32 1
  24   13   33 1
  25   14   15 am
  26   14   16 2
  27   15   18 1
  28   15   34 1
  29   17   35 1
  30   18   19 1
  31   18   20 1
  32   18   36 1
  33   19   37 1
  34   19   38 1
  35   19   39 1
  36   20   21 1
  37   20   25 1
  38   20   40 1
  39   21   22 1
  40   21   41 1
  41   21   42 1
  42   22   23 1
  43   22   43 1
  44   22   44 1
  45   23   24 1
  46   23   45 1
  47   23   46 1
  48   24   25 1
  49   24   47 1
  50   24   48 1
  51   25   49 1
  52   25   50 1

#	End of record

