#	Name: ASD01152257
#	Creating user name:	WinNT
#	Creation time:	15. 06. 2019 19:05

#	Modifying user name:	WinNT
#	Modification time:	15. 06. 2019 19:05

#	Program:	/corina/corina34_cracker 3.40 0067  02.08.2006

@<TRIPOS>MOLECULE
ASD01152257
  42   44    0    0    0
SMALL
NO_CHARGES


@<TRIPOS>ATOM
   1 C1            -0.6721     1.3705    -0.7065 C.2     
   2 N2            -0.5066     0.0687    -0.6135 N.2     
   3 N3            -1.4598    -0.6950    -0.2163 N.am    
   4 C4            -2.6698    -0.2253     0.1253 C.2     
   5 N5            -2.9505     1.0921     0.0676 N.am    
   6 C6            -1.9808     1.9453    -0.3380 C.2     
   7 O7            -2.1842     3.1427    -0.4066 O.2     
   8 O8            -3.5290    -1.0025     0.4934 O.2     
   9 C9            -1.2275    -2.0728    -0.1369 C.ar    
  10 C10           -4.2758     1.5910     0.4430 C.3     
  11 C11           -4.2925     1.9142     1.9148 C.ar    
  12 C12           -3.9476     3.1807     2.3477 C.ar    
  13 C13           -3.9623     3.4791     3.6976 C.ar    
  14 C14           -4.3223     2.5103     4.6163 C.ar    
  15 C15           -4.6687     1.2404     4.1828 C.ar    
  16 C16           -4.6583     0.9453     2.8306 C.ar    
  17 C17           -0.6593    -2.7442    -1.2108 C.ar    
  18 C18           -1.5602    -2.7684     1.0190 C.ar    
  19 C19           -1.3310    -4.1283     1.0989 C.ar    
  20 C20           -0.7692    -4.8018     0.0288 C.ar    
  21 C21           -0.4299    -4.1095    -1.1289 C.ar    
  22 Cl22          -4.3398     2.8844     6.3114 Cl      
  23 F23           -0.5455    -6.1317     0.1104 F       
  24 F24           -5.0207     0.2926     5.0789 F       
  25 C25            0.3971     2.2133    -1.1505 C.1     
  26 N26            1.2453     2.8818    -1.5028 N.1     
  27 N27            0.1383    -4.7912    -2.2123 N.am    
  28 C28            1.0106    -4.1601    -3.0230 C.2     
  29 O29            1.2632    -2.9870    -2.8463 O.2     
  30 C30            1.6723    -4.9120    -4.1490 C.3     
  31 H31           -4.5006     2.4910    -0.1292 H       
  32 H32           -5.0248     0.8283     0.2299 H       
  33 H33           -3.6659     3.9378     1.6309 H       
  34 H34           -3.6923     4.4690     4.0347 H       
  35 H35           -4.9280    -0.0439     2.4915 H       
  36 H36           -0.3966    -2.2044    -2.1086 H       
  37 H37           -1.9981    -2.2451     1.8561 H       
  38 H38           -1.5905    -4.6667     1.9985 H       
  39 H39           -0.0960    -5.7176    -2.3792 H       
  40 H40            1.3243    -5.9449    -4.1501 H       
  41 H41            1.4176    -4.4418    -5.0989 H       
  42 H42            2.7536    -4.8930    -4.0126 H       
@<TRIPOS>BOND
   1    1    2 2
   2    1   25 1
   3    1    6 1
   4    2    3 1
   5    3    4 am
   6    3    9 1
   7    4    5 am
   8    4    8 2
   9    5    6 am
  10    5   10 1
  11    6    7 2
  12    9   17 ar
  13    9   18 ar
  14   10   11 1
  15   10   31 1
  16   10   32 1
  17   11   12 ar
  18   11   16 ar
  19   12   13 ar
  20   12   33 1
  21   13   14 ar
  22   13   34 1
  23   14   15 ar
  24   14   22 1
  25   15   16 ar
  26   15   24 1
  27   16   35 1
  28   17   21 ar
  29   17   36 1
  30   18   19 ar
  31   18   37 1
  32   19   20 ar
  33   19   38 1
  34   20   21 ar
  35   20   23 1
  36   21   27 1
  37   25   26 3
  38   27   28 am
  39   27   39 1
  40   28   29 2
  41   28   30 1
  42   30   40 1
  43   30   41 1
  44   30   42 1

#	End of record

