#	Name: ASD03430725
#	Creating user name:	WinNT
#	Creation time:	15. 06. 2019 20:41

#	Modifying user name:	WinNT
#	Modification time:	15. 06. 2019 20:41

#	Program:	/corina/corina34_cracker 3.40 0067  02.08.2006

@<TRIPOS>MOLECULE
ASD03430725
  61   67    0    0    0
SMALL
NO_CHARGES


@<TRIPOS>ATOM
   1 C1             2.6708     0.3859    -0.0060 C.ar    
   2 C2             2.1005    -0.8771    -0.0432 C.ar    
   3 C3             2.8877    -1.9881    -0.2606 C.ar    
   4 C4             4.2623    -1.8591    -0.4355 C.ar    
   5 C5             4.8307    -0.5898    -0.4022 C.ar    
   6 C6             4.0417     0.5277    -0.1874 C.ar    
   7 O7             4.8548    -3.0755    -0.6074 O.3     
   8 C8             2.5765    -3.4562    -0.3759 C.3     
   9 C9             3.8564    -4.0409    -0.9893 C.3     
  10 C10            0.9867    -4.6328     0.8113 C.ar    
  11 C11            2.2568    -4.0781     0.9510 C.ar    
  12 C12            1.3753    -3.7185    -1.2383 C.2     
  13 N13            0.5000    -4.4064    -0.4784 N.am    
  14 O14            1.2225    -3.3775    -2.3921 O.2     
  15 C15            2.9367    -4.1762     2.1439 C.ar    
  16 C16            2.3607    -4.8313     3.2183 C.ar    
  17 C17            1.1009    -5.3865     3.0906 C.ar    
  18 C18            0.4148    -5.2898     1.8975 C.ar    
  19 C19           -0.8092    -4.8641    -0.9503 C.3     
  20 O20            4.6233     1.7584    -0.1527 O.3     
  21 O21            1.8777     1.4729     0.2025 O.3     
  22 C22            2.5345     2.6816     0.5999 C.3     
  23 C23            3.7545     2.8855    -0.3079 C.3     
  24 C24            3.1050    -4.9396     4.5242 C.3     
  25 C25           -1.8947    -4.1961    -0.1463 C.ar    
  26 C26           -3.0367    -4.8984     0.1910 C.ar    
  27 C27           -4.0324    -4.2856     0.9284 C.ar    
  28 C28           -3.8860    -2.9707     1.3290 C.ar    
  29 C29           -2.7437    -2.2687     0.9925 C.ar    
  30 C30           -1.7461    -2.8828     0.2587 C.ar    
  31 C31           -0.9710    -4.5085    -2.4058 C.ar    
  32 C32           -0.9311    -5.5000    -3.3682 C.ar    
  33 C33           -1.0794    -5.1737    -4.7033 C.ar    
  34 C34           -1.2682    -3.8560    -5.0759 C.ar    
  35 C35           -1.3090    -2.8646    -4.1135 C.ar    
  36 C36           -1.1650    -3.1914    -2.7780 C.ar    
  37 H37            1.0360    -0.9913     0.0990 H       
  38 H38            5.8952    -0.4751    -0.5444 H       
  39 H39            3.7725    -4.1025    -2.0743 H       
  40 H40            4.0793    -5.0182    -0.5612 H       
  41 H41            3.9207    -3.7418     2.2414 H       
  42 H42            0.6517    -5.8981     3.9289 H       
  43 H43           -0.5689    -5.7259     1.8056 H       
  44 H44           -0.8811    -5.9451    -0.8303 H       
  45 H45            1.8512     3.5239     0.4919 H       
  46 H46            2.8576     2.6004     1.6377 H       
  47 H47            4.2789     3.7966    -0.0198 H       
  48 H48            3.4317     2.9593    -1.3464 H       
  49 H49            2.8635    -4.0821     5.1522 H       
  50 H50            2.8122    -5.8574     5.0342 H       
  51 H51            4.1775    -4.9578     4.3307 H       
  52 H52           -3.1510    -5.9257    -0.1220 H       
  53 H53           -4.9249    -4.8341     1.1913 H       
  54 H54           -4.6643    -2.4918     1.9046 H       
  55 H55           -2.6296    -1.2413     1.3052 H       
  56 H56           -0.8520    -2.3356    -0.0010 H       
  57 H57           -0.7836    -6.5295    -3.0771 H       
  58 H58           -1.0475    -5.9483    -5.4552 H       
  59 H59           -1.3833    -3.6010    -6.1190 H       
  60 H60           -1.4561    -1.8350    -4.4046 H       
  61 H61           -1.2006    -2.4173    -2.0258 H       
@<TRIPOS>BOND
   1    1    2 ar
   2    1    6 ar
   3    1   21 1
   4    2    3 ar
   5    2   37 1
   6    3    4 ar
   7    3    8 1
   8    4    5 ar
   9    4    7 1
  10    5    6 ar
  11    5   38 1
  12    6   20 1
  13    7    9 1
  14    8    9 1
  15    8   11 1
  16    8   12 1
  17    9   39 1
  18    9   40 1
  19   10   11 ar
  20   10   13 1
  21   10   18 ar
  22   11   15 ar
  23   12   13 am
  24   12   14 2
  25   13   19 1
  26   15   16 ar
  27   15   41 1
  28   16   17 ar
  29   16   24 1
  30   17   18 ar
  31   17   42 1
  32   18   43 1
  33   19   25 1
  34   19   31 1
  35   19   44 1
  36   20   23 1
  37   21   22 1
  38   22   23 1
  39   22   45 1
  40   22   46 1
  41   23   47 1
  42   23   48 1
  43   24   49 1
  44   24   50 1
  45   24   51 1
  46   25   26 ar
  47   25   30 ar
  48   26   27 ar
  49   26   52 1
  50   27   28 ar
  51   27   53 1
  52   28   29 ar
  53   28   54 1
  54   29   30 ar
  55   29   55 1
  56   30   56 1
  57   31   32 ar
  58   31   36 ar
  59   32   33 ar
  60   32   57 1
  61   33   34 ar
  62   33   58 1
  63   34   35 ar
  64   34   59 1
  65   35   36 ar
  66   35   60 1
  67   36   61 1

#	End of record

