#	Name: ASD07900001
#	Creating user name:	WinNT
#	Creation time:	15. 06. 2019 21:11

#	Modifying user name:	WinNT
#	Modification time:	15. 06. 2019 21:11

#	Program:	/corina/corina34_cracker 3.40 0067  02.08.2006

@<TRIPOS>MOLECULE
ASD07900001
 143  143    0    0    0
SMALL
NO_CHARGES


@<TRIPOS>ATOM
   1 C1             3.0337     3.2074     0.7475 C.3     
   2 C2             3.2274     1.6963     0.6055 C.3     
   3 C3             3.7796     1.1277     1.9142 C.3     
   4 C4             2.7939     1.4112     3.0495 C.3     
   5 C5             2.6003     2.9222     3.1915 C.3     
   6 C6             2.0481     3.4908     1.8828 C.3     
   7 O7             1.8672     4.9021     2.0154 O.3     
   8 P8             0.4375     5.6227     1.8459 P.3     
   9 O9            -0.5826     4.9759     2.8093 O.co2   
  10 O10            0.5818     7.1889     2.1894 O.3     
  11 O11           -0.0530     5.4578     0.3901 O.co2   
  12 C12           -0.5327     8.0822     2.2323 C.3     
  13 O13            1.6797     3.1869     4.2519 O.3     
  14 O14            1.5384     0.7956     2.7550 O.3     
  15 O15            3.9605    -0.2836     1.7816 O.3     
  16 O16            1.9718     1.0808     0.3110 O.3     
  17 O17            4.2893     3.8229     1.0419 O.3     
  18 P18            0.8654    -0.3199     3.7010 P.3     
  19 P19            5.3902    -1.0041     1.9511 P.3     
  20 O20            0.6166     0.2840     5.1250 O.co2   
  21 O21           -0.4994    -0.7758     3.0813 O.co2   
  22 O22            1.8242    -1.5535     3.8171 O.co2   
  23 O23            5.9465    -0.7288     3.3896 O.co2   
  24 O24            5.2251    -2.5479     1.7417 O.co2   
  25 O25            6.3904    -0.4368     0.8870 O.co2   
  26 C26           -0.0457     9.4887     2.5865 C.3     
  27 O27            0.4979     9.4879     3.9329 O.3     
  28 C28            1.0411     9.9162     1.5980 C.3     
  29 C29           -0.3555     9.7520     4.9348 C.2     
  30 O30            2.1003     8.9231     1.5840 O.3     
  31 C31            3.1374     9.1499     0.7626 C.2     
  32 O32           -1.5181     9.9765     4.6947 O.2     
  33 C33            0.1366     9.7686     6.3591 C.3     
  34 C34           -1.0277    10.0928     7.2972 C.3     
  35 C35           -0.5281    10.1096     8.7433 C.3     
  36 C36           -1.6750    10.4289     9.6673 C.2     
  37 C37           -2.0791     9.5405    10.5410 C.2     
  38 C38           -1.5209     8.1411    10.5060 C.3     
  39 C39           -0.7495     7.8761    11.7731 C.2     
  40 C40           -1.0214     6.8184    12.4965 C.2     
  41 C41           -2.0042     5.7931    11.9924 C.3     
  42 C42           -1.3771     4.4241    12.0526 C.2     
  43 C43           -1.9970     3.4461    12.6652 C.2     
  44 C44           -3.3964     3.6500    13.1859 C.3     
  45 C45           -4.2872     2.5456    12.6780 C.2     
  46 C46           -4.8738     1.7358    13.5243 C.2     
  47 C47           -4.5119     1.7827    14.9864 C.3     
  48 C48           -5.7382     2.1967    15.8023 C.3     
  49 C49           -5.3707     2.2443    17.2868 C.3     
  50 O50            3.1595    10.1452     0.0781 O.2     
  51 C51            4.2743     8.1631     0.6943 C.3     
  52 C52            5.3178     8.6559    -0.3103 C.3     
  53 C53            6.4720     7.6540    -0.3796 C.3     
  54 C54            7.5155     8.1469    -1.3842 C.3     
  55 C55            8.6697     7.1450    -1.4536 C.3     
  56 C56            9.7132     7.6378    -2.4582 C.3     
  57 C57           10.8674     6.6359    -2.5276 C.3     
  58 C58           11.9109     7.1287    -3.5322 C.3     
  59 C59           13.0651     6.1269    -3.6015 C.3     
  60 C60           14.1085     6.6197    -4.6061 C.3     
  61 C61           15.2628     5.6178    -4.6755 C.3     
  62 C62           16.3062     6.1106    -5.6801 C.3     
  63 C63           17.4605     5.1088    -5.7495 C.3     
  64 C64           18.5039     5.6016    -6.7541 C.3     
  65 C65           19.6582     4.5997    -6.8234 C.3     
  66 C66           20.7016     5.0925    -7.8280 C.3     
  67 C67           21.8559     4.0907    -7.8974 C.3     
  68 H68            2.6403     3.6124    -0.1849 H       
  69 H69            3.9296     1.4944    -0.2033 H       
  70 H70            4.7373     1.5973     2.1388 H       
  71 H71            3.1874     1.0061     3.9819 H       
  72 H72            3.5580     3.3917     3.4161 H       
  73 H73            1.0904     3.0213     1.6582 H       
  74 H74           -1.0207     8.1014     1.2578 H       
  75 H75           -1.2419     7.7425     2.9871 H       
  76 H76            1.5089     4.1273     4.3989 H       
  77 H77            1.5625     1.3941    -0.5071 H       
  78 H78            4.9641     3.6842     0.3633 H       
  79 H79           -0.8810    10.1869     2.5324 H       
  80 H80            0.6110    10.0027     0.6002 H       
  81 H81            1.4503    10.8796     1.9021 H       
  82 H82            0.5467     8.7911     6.6133 H       
  83 H83            0.9120    10.5270     6.4668 H       
  84 H84           -1.4377    11.0702     7.0431 H       
  85 H85           -1.8031     9.3343     7.1895 H       
  86 H86           -0.1181     9.1322     8.9974 H       
  87 H87            0.2473    10.8681     8.8510 H       
  88 H88           -2.1636    11.3903     9.6092 H       
  89 H89           -2.8124     9.8108    11.2864 H       
  90 H90           -2.3389     7.4256    10.4222 H       
  91 H91           -0.8571     8.0361     9.6478 H       
  92 H92            0.0276     8.5583    12.0849 H       
  93 H93           -0.5414     6.6811    13.4542 H       
  94 H94           -2.8989     5.8106    12.6147 H       
  95 H95           -2.2738     6.0242    10.9618 H       
  96 H96           -0.4167     4.2493    11.5906 H       
  97 H97           -1.5051     2.4937    12.7972 H       
  98 H98           -3.3844     3.6349    14.2757 H       
  99 H99           -3.7763     4.6113    12.8400 H       
 100 H100          -4.4420     2.4218    11.6163 H       
 101 H101          -5.6168     1.0346    13.1741 H       
 102 H102          -4.1764     0.7972    15.3095 H       
 103 H103          -3.7120     2.5071    15.1397 H       
 104 H104          -6.0737     3.1822    15.4793 H       
 105 H105          -6.5381     1.4723    15.6491 H       
 106 H106          -5.0352     1.2588    17.6098 H       
 107 H107          -4.5708     2.9688    17.4400 H       
 108 H108          -6.2443     2.5393    17.8681 H       
 109 H109           4.7335     8.0691     1.6784 H       
 110 H110           3.8941     7.1922     0.3765 H       
 111 H111           4.8586     8.7499    -1.2944 H       
 112 H112           5.6980     9.6268     0.0075 H       
 113 H113           6.9312     7.5600     0.6045 H       
 114 H114           6.0918     6.6832    -0.6974 H       
 115 H115           7.0563     8.2409    -2.3683 H       
 116 H116           7.8956     9.1177    -1.0664 H       
 117 H117           9.1289     7.0510    -0.4695 H       
 118 H118           8.2895     6.1741    -1.7714 H       
 119 H119           9.2540     7.7318    -3.4423 H       
 120 H120          10.0933     8.6087    -2.1404 H       
 121 H121          11.3265     6.5419    -1.5435 H       
 122 H122          10.4872     5.6651    -2.8454 H       
 123 H123          11.4517     7.2228    -4.5163 H       
 124 H124          12.2910     8.0996    -3.2144 H       
 125 H125          13.5242     6.0329    -2.6174 H       
 126 H126          12.6849     5.1560    -3.9193 H       
 127 H127          13.6494     6.7137    -5.5902 H       
 128 H128          14.4887     7.5906    -4.2883 H       
 129 H129          15.7219     5.5238    -3.6914 H       
 130 H130          14.8826     4.6470    -4.9933 H       
 131 H131          15.8471     6.2047    -6.6642 H       
 132 H132          16.6864     7.0815    -5.3623 H       
 133 H133          17.9196     5.0147    -4.7654 H       
 134 H134          17.0803     4.1379    -6.0673 H       
 135 H135          18.0448     5.6956    -7.7382 H       
 136 H136          18.8841     6.5725    -6.4363 H       
 137 H137          20.1173     4.5057    -5.8393 H       
 138 H138          19.2780     3.6288    -7.1412 H       
 139 H139          20.2425     5.1866    -8.8121 H       
 140 H140          21.0818     6.0634    -7.5102 H       
 141 H141          22.3150     3.9966    -6.9133 H       
 142 H142          21.4757     3.1198    -8.2152 H       
 143 H143          22.5993     4.4418    -8.6131 H       
@<TRIPOS>BOND
   1    1    2 1
   2    1   17 1
   3    1    6 1
   4    1   68 1
   5    2    3 1
   6    2   16 1
   7    2   69 1
   8    3    4 1
   9    3   15 1
  10    3   70 1
  11    4    5 1
  12    4   14 1
  13    4   71 1
  14    5    6 1
  15    5   13 1
  16    5   72 1
  17    6    7 1
  18    6   73 1
  19    7    8 1
  20    8    9 ar
  21    8   10 1
  22    8   11 ar
  23   10   12 1
  24   12   26 1
  25   12   74 1
  26   12   75 1
  27   13   76 1
  28   14   18 1
  29   15   19 1
  30   16   77 1
  31   17   78 1
  32   18   20 ar
  33   18   21 ar
  34   18   22 ar
  35   19   23 ar
  36   19   24 ar
  37   19   25 ar
  38   26   27 1
  39   26   28 1
  40   26   79 1
  41   27   29 1
  42   28   30 1
  43   28   80 1
  44   28   81 1
  45   29   32 2
  46   29   33 1
  47   30   31 1
  48   31   50 2
  49   31   51 1
  50   33   34 1
  51   33   82 1
  52   33   83 1
  53   34   35 1
  54   34   84 1
  55   34   85 1
  56   35   36 1
  57   35   86 1
  58   35   87 1
  59   36   37 2
  60   36   88 1
  61   37   38 1
  62   37   89 1
  63   38   39 1
  64   38   90 1
  65   38   91 1
  66   39   40 2
  67   39   92 1
  68   40   41 1
  69   40   93 1
  70   41   42 1
  71   41   94 1
  72   41   95 1
  73   42   43 2
  74   42   96 1
  75   43   44 1
  76   43   97 1
  77   44   45 1
  78   44   98 1
  79   44   99 1
  80   45   46 2
  81   45  100 1
  82   46   47 1
  83   46  101 1
  84   47   48 1
  85   47  102 1
  86   47  103 1
  87   48   49 1
  88   48  104 1
  89   48  105 1
  90   49  106 1
  91   49  107 1
  92   49  108 1
  93   51   52 1
  94   51  109 1
  95   51  110 1
  96   52   53 1
  97   52  111 1
  98   52  112 1
  99   53   54 1
 100   53  113 1
 101   53  114 1
 102   54   55 1
 103   54  115 1
 104   54  116 1
 105   55   56 1
 106   55  117 1
 107   55  118 1
 108   56   57 1
 109   56  119 1
 110   56  120 1
 111   57   58 1
 112   57  121 1
 113   57  122 1
 114   58   59 1
 115   58  123 1
 116   58  124 1
 117   59   60 1
 118   59  125 1
 119   59  126 1
 120   60   61 1
 121   60  127 1
 122   60  128 1
 123   61   62 1
 124   61  129 1
 125   61  130 1
 126   62   63 1
 127   62  131 1
 128   62  132 1
 129   63   64 1
 130   63  133 1
 131   63  134 1
 132   64   65 1
 133   64  135 1
 134   64  136 1
 135   65   66 1
 136   65  137 1
 137   65  138 1
 138   66   67 1
 139   66  139 1
 140   66  140 1
 141   67  141 1
 142   67  142 1
 143   67  143 1

#	End of record

