#	Name: ASD02030327
#	Creating user name:	WinNT
#	Creation time:	15. 06. 2019 20:15

#	Modifying user name:	WinNT
#	Modification time:	15. 06. 2019 20:15

#	Program:	/corina/corina34_cracker 3.40 0067  02.08.2006

@<TRIPOS>MOLECULE
ASD02030327
  58   61    0    0    0
SMALL
NO_CHARGES


@<TRIPOS>ATOM
   1 N1            -0.2339     1.1130    -0.1012 N.am    
   2 C2            -0.3167    -0.3035     0.2815 C.3     
   3 C3            -1.1844    -0.4210     1.5407 C.3     
   4 N4            -2.4301     0.3282     1.3242 N.am    
   5 C5            -2.3472     1.7447     0.9415 C.3     
   6 C6            -1.4796     1.8637    -0.3122 C.3     
   7 C7             0.9630     1.7143    -0.2506 C.2     
   8 C8             2.2037     0.9861     0.0900 C.2     
   9 N9             3.4173     1.4935     0.1121 N.2     
  10 N10            2.2899    -0.3110     0.4377 N.2     
  11 C11            3.5531    -0.5709     0.6602 C.2     
  12 N12            4.2462     0.5675     0.4526 N.pl3   
  13 C13            5.6334     0.7176     0.5839 C.ar    
  14 O14            1.0224     2.8554    -0.6653 O.2     
  15 C15           -1.1556     3.3358    -0.5746 C.3     
  16 C16           -2.4556     4.1394    -0.6455 C.3     
  17 C17           -1.3360     1.3501    -2.7531 C.3     
  18 C18           -2.2270     1.2771    -1.5115 C.3     
  19 C19           -3.6270    -0.2731     1.4736 C.2     
  20 C20           -4.8707     0.5192     1.3674 C.ar    
  21 O21           -3.6839    -1.4668     1.6956 O.2     
  22 C22           -6.0219    -0.0532     0.8249 C.ar    
  23 C23           -7.1804     0.6924     0.7290 C.ar    
  24 C24           -7.2004     2.0046     1.1699 C.ar    
  25 C25           -6.0618     2.5771     1.7085 C.ar    
  26 C26           -4.8999     1.8412     1.8146 C.ar    
  27 Cl27          -8.6139    -0.0169     0.0541 Cl      
  28 C28            6.2261     1.9494     0.3400 C.ar    
  29 C29            7.5934     2.0941     0.4703 C.ar    
  30 C30            8.3720     1.0138     0.8432 C.ar    
  31 C31            7.7848    -0.2143     1.0863 C.ar    
  32 C32            6.4172    -0.3637     0.9637 C.ar    
  33 H33           -0.7687    -0.8756    -0.5289 H       
  34 H34            0.6828    -0.6854     0.4890 H       
  35 H35           -1.4160    -1.4694     1.7288 H       
  36 H36           -0.6497    -0.0032     2.3937 H       
  37 H37           -3.3468     2.1266     0.7340 H       
  38 H38           -1.8953     2.3168     1.7519 H       
  39 H39            3.9656    -1.5234     0.9583 H       
  40 H40           -0.5341     3.7208     0.2339 H       
  41 H41           -0.6200     3.4271    -1.5196 H       
  42 H42           -2.2225     5.1999    -0.7411 H       
  43 H43           -3.0362     3.8157    -1.5094 H       
  44 H44           -3.0344     3.9750     0.2634 H       
  45 H45           -1.0156     2.3800    -2.9104 H       
  46 H46           -0.4615     0.7152    -2.6106 H       
  47 H47           -1.8962     1.0070    -3.6230 H       
  48 H48           -2.4817     0.2371    -1.3076 H       
  49 H49           -3.1396     1.8473    -1.6851 H       
  50 H50           -6.0068    -1.0767     0.4805 H       
  51 H51           -8.1086     2.5840     1.0926 H       
  52 H52           -6.0839     3.6014     2.0503 H       
  53 H53           -4.0121     2.2896     2.2357 H       
  54 H54            5.6185     2.7933     0.0485 H       
  55 H55            8.0550     3.0518     0.2804 H       
  56 H56            9.4411     1.1295     0.9443 H       
  57 H57            8.3956    -1.0563     1.3766 H       
  58 H58            5.9591    -1.3231     1.1538 H       
@<TRIPOS>BOND
   1    1    2 1
   2    1    7 am
   3    1    6 1
   4    2    3 1
   5    2   33 1
   6    2   34 1
   7    3    4 1
   8    3   35 1
   9    3   36 1
  10    4    5 1
  11    4   19 am
  12    5    6 1
  13    5   37 1
  14    5   38 1
  15    6   15 1
  16    6   18 1
  17    7    8 1
  18    7   14 2
  19    8    9 2
  20    8   10 1
  21    9   12 1
  22   10   11 2
  23   11   12 1
  24   11   39 1
  25   12   13 1
  26   13   28 ar
  27   13   32 ar
  28   15   16 1
  29   15   40 1
  30   15   41 1
  31   16   42 1
  32   16   43 1
  33   16   44 1
  34   17   18 1
  35   17   45 1
  36   17   46 1
  37   17   47 1
  38   18   48 1
  39   18   49 1
  40   19   20 1
  41   19   21 2
  42   20   22 ar
  43   20   26 ar
  44   22   23 ar
  45   22   50 1
  46   23   24 ar
  47   23   27 1
  48   24   25 ar
  49   24   51 1
  50   25   26 ar
  51   25   52 1
  52   26   53 1
  53   28   29 ar
  54   28   54 1
  55   29   30 ar
  56   29   55 1
  57   30   31 ar
  58   30   56 1
  59   31   32 ar
  60   31   57 1
  61   32   58 1

#	End of record

