#	Name: ASD02230008
#	Creating user name:	WinNT
#	Creation time:	15. 06. 2019 20:20

#	Modifying user name:	WinNT
#	Modification time:	15. 06. 2019 20:20

#	Program:	/corina/corina34_cracker 3.40 0067  02.08.2006

@<TRIPOS>MOLECULE
ASD02230008
  36   37    0    0    0
SMALL
NO_CHARGES


@<TRIPOS>ATOM
   1 C1            -0.0187     1.5265     0.0104 C.3     
   2 C2             0.0021    -0.0041     0.0020 C.3     
   3 C3             0.9474    -0.5080     1.0545 C.2     
   4 N4             1.8878     0.2479     1.6223 N.am    
   5 C5             2.0863     1.6620     1.3302 C.3     
   6 C6             1.4294     2.0309    -0.0007 C.3     
   7 C7            -0.7520     2.0385    -1.2309 C.3     
   8 C8            -1.3516    -0.5130     0.2765 C.1     
   9 N9            -2.3963    -0.9057     0.4883 N.1     
  10 N10            2.1612     1.4001    -1.1020 N.2     
  11 N11            3.3280     1.7409    -1.3466 N.2     
  12 C12            4.0127     1.1508    -2.3769 C.ar    
  13 C13            4.0837    -0.4265    -4.1947 C.ar    
  14 C14            3.3954     0.1692    -3.1562 C.ar    
  15 C15            5.3243     1.5327    -2.6533 C.ar    
  16 C16            6.0129     0.9274    -3.7027 C.ar    
  17 C17            5.3851    -0.0572    -4.4703 C.ar    
  18 C18            7.4035     1.3261    -4.0033 C.2     
  19 O19            8.0677     0.7400    -5.0182 O.3     
  20 O20            7.9477     2.1824    -3.3355 O.2     
  21 O21            0.8500    -1.6643     1.4073 O.2     
  22 O22            1.5084     2.4459     2.3759 O.3     
  23 H23           -0.5241     1.8817     0.9085 H       
  24 H24            0.3285    -0.3564    -0.9765 H       
  25 H25            2.4765    -0.1694     2.2705 H       
  26 H26            3.1545     1.8720     1.2750 H       
  27 H27            1.4385     3.1137    -0.1252 H       
  28 H28           -1.7753     1.6631    -1.2290 H       
  29 H29           -0.7649     3.1284    -1.2216 H       
  30 H30           -0.2384     1.6888    -2.1264 H       
  31 H31            3.6018    -1.1848    -4.7939 H       
  32 H32            2.3777    -0.1248    -2.9458 H       
  33 H33            5.8046     2.2944    -2.0571 H       
  34 H34            5.9178    -0.5276    -5.2836 H       
  35 H35            8.9753     1.0339    -5.1766 H       
  36 H36            1.8877     2.2774     3.2493 H       
@<TRIPOS>BOND
   1    1    2 1
   2    1    6 1
   3    1    7 1
   4    1   23 1
   5    2    3 1
   6    2    8 1
   7    2   24 1
   8    3    4 am
   9    3   21 2
  10    4    5 1
  11    4   25 1
  12    5    6 1
  13    5   22 1
  14    5   26 1
  15    6   10 1
  16    6   27 1
  17    7   28 1
  18    7   29 1
  19    7   30 1
  20    8    9 3
  21   10   11 2
  22   11   12 1
  23   12   15 ar
  24   12   14 ar
  25   13   14 ar
  26   13   17 ar
  27   13   31 1
  28   14   32 1
  29   15   16 ar
  30   15   33 1
  31   16   17 ar
  32   16   18 1
  33   17   34 1
  34   18   19 1
  35   18   20 2
  36   19   35 1
  37   22   36 1

#	End of record

