#	Name: ASD01881982
#	Creating user name:	WinNT
#	Creation time:	15. 06. 2019 19:43

#	Modifying user name:	WinNT
#	Modification time:	15. 06. 2019 19:43

#	Program:	/corina/corina34_cracker 3.40 0067  02.08.2006

@<TRIPOS>MOLECULE
ASD01881982
  47   51    0    0    0
SMALL
NO_CHARGES


@<TRIPOS>ATOM
   1 N1             0.0445     1.1976    -0.7500 N.pl3   
   2 N2             0.0356    -0.0525    -0.4396 N.2     
   3 N3             1.2109    -0.4760    -0.1316 N.2     
   4 C4             2.0905     0.5408    -0.2338 C.ar    
   5 C5             1.3352     1.6564    -0.6422 C.ar    
   6 C6             3.4664     0.6768    -0.0305 C.ar    
   7 C7             4.0649     1.9046    -0.2334 C.ar    
   8 C8             3.3066     3.0009    -0.6374 C.ar    
   9 C9             1.9602     2.8807    -0.8404 C.ar    
  10 O10            5.4033     2.0444    -0.0370 O.3     
  11 O11            8.6434     6.5137    -1.0151 O.3     
  12 C12           10.0759     6.3693    -1.0165 C.3     
  13 C13           10.3265     4.8476    -0.9278 C.3     
  14 O14            9.0813     4.2849    -1.4097 O.3     
  15 C15            8.0890     5.1959    -0.8992 C.3     
  16 C16            7.7988     4.8754     0.5649 C.3     
  17 C17            7.2284     3.4593     0.6749 C.3     
  18 C18            5.9405     3.3641    -0.1456 C.3     
  19 C19            6.2453     3.6712    -1.6132 C.3     
  20 C20            6.8129     5.0879    -1.7300 C.3     
  21 C21           -1.1189     1.9911    -1.1539 C.3     
  22 C22           -1.7677     2.6121     0.0848 C.3     
  23 C23           -2.9343     3.5768    -0.1373 C.3     
  24 C24           -3.1946     2.1788     0.4272 C.3     
  25 Br25           4.5001    -0.8083     0.5186 Br      
  26 H26            3.7874     3.9556    -0.7921 H       
  27 H27            1.3825     3.7377    -1.1539 H       
  28 H28           10.4957     6.7689    -1.9397 H       
  29 H29           10.5082     6.8751    -0.1532 H       
  30 H30           11.1564     4.5553    -1.5712 H       
  31 H31           10.5121     4.5468     0.1033 H       
  32 H32            8.7219     4.9410     1.1409 H       
  33 H33            7.0749     5.5900     0.9565 H       
  34 H34            7.9565     2.7436     0.2930 H       
  35 H35            7.0115     3.2350     1.7192 H       
  36 H36            5.2148     4.0840     0.2328 H       
  37 H37            6.9752     2.9550    -1.9904 H       
  38 H38            5.3282     3.5978    -2.1978 H       
  39 H39            6.0786     5.8048    -1.3626 H       
  40 H40            7.0399     5.3033    -2.7741 H       
  41 H41           -0.8010     2.7824    -1.8328 H       
  42 H42           -1.8401     1.3479    -1.6580 H       
  43 H43           -1.0923     2.8215     0.9143 H       
  44 H44           -3.0265     4.4208     0.5464 H       
  45 H45           -3.2395     3.7692    -1.1658 H       
  46 H46           -3.6711     1.4514    -0.2300 H       
  47 H47           -3.4581     2.1030     1.4821 H       
@<TRIPOS>BOND
   1    1    2 1
   2    1    5 1
   3    1   21 1
   4    2    3 2
   5    3    4 1
   6    4    5 ar
   7    4    6 ar
   8    5    9 ar
   9    6    7 ar
  10    6   25 1
  11    7    8 ar
  12    7   10 1
  13    8    9 ar
  14    8   26 1
  15    9   27 1
  16   10   18 1
  17   11   12 1
  18   11   15 1
  19   12   13 1
  20   12   28 1
  21   12   29 1
  22   13   14 1
  23   13   30 1
  24   13   31 1
  25   14   15 1
  26   15   16 1
  27   15   20 1
  28   16   17 1
  29   16   32 1
  30   16   33 1
  31   17   18 1
  32   17   34 1
  33   17   35 1
  34   18   19 1
  35   18   36 1
  36   19   20 1
  37   19   37 1
  38   19   38 1
  39   20   39 1
  40   20   40 1
  41   21   22 1
  42   21   41 1
  43   21   42 1
  44   22   23 1
  45   22   24 1
  46   22   43 1
  47   23   24 1
  48   23   44 1
  49   23   45 1
  50   24   46 1
  51   24   47 1

#	End of record

