#	Name: ASD04882146
#	Creating user name:	WinNT
#	Creation time:	15. 06. 2019 20:54

#	Modifying user name:	WinNT
#	Modification time:	15. 06. 2019 20:54

#	Program:	/corina/corina34_cracker 3.40 0067  02.08.2006

@<TRIPOS>MOLECULE
ASD04882146
  78   82    0    0    0
SMALL
NO_CHARGES


@<TRIPOS>ATOM
   1 O1            -0.0240     1.3615    -0.0915 O.3     
   2 C2            -0.0684     0.1223     0.4472 C.2     
   3 C3            -1.2035    -0.7269     0.4941 C.2     
   4 N4            -2.3750    -0.3155    -0.0301 N.am    
   5 C5            -3.4628    -1.1963    -0.0914 C.ar    
   6 C6            -4.7648    -0.7113     0.0598 C.ar    
   7 C7            -5.8451    -1.5842    -0.0009 C.ar    
   8 C8            -5.6366    -2.9293    -0.2106 C.ar    
   9 C9            -4.3371    -3.4209    -0.3626 C.ar    
  10 C10           -3.2496    -2.5447    -0.3072 C.ar    
  11 N11           -4.9803     0.6480     0.2719 N.3     
  12 C12           -4.4402     1.0702     1.5718 C.3     
  13 C13           -6.4084     0.9777     0.1660 C.3     
  14 C14           -6.5937     2.4885     0.3260 C.3     
  15 N15           -6.0536     2.9107     1.6259 N.3     
  16 C16           -4.6255     2.5810     1.7318 C.3     
  17 C17           -6.2697     4.2742     1.8387 C.ar    
  18 C18           -5.7358     5.2088     0.9610 C.ar    
  19 C19           -7.0240     4.6982     2.9256 C.ar    
  20 C20           -7.2357     6.0469     3.1331 C.ar    
  21 C21           -6.6981     6.9752     2.2601 C.ar    
  22 C22           -5.9513     6.5563     1.1744 C.ar    
  23 C23           -7.6110     3.6874     3.8769 C.3     
  24 C24           -4.1141    -4.8620    -0.5866 C.2     
  25 N25           -5.1638    -5.7053    -0.6448 N.am    
  26 O26           -2.9832    -5.2888    -0.7188 O.2     
  27 C27           -4.9423    -7.1363    -0.8673 C.3     
  28 C28           -6.2883    -7.8632    -0.8902 C.3     
  29 C29           -6.0570    -9.3577    -1.1226 C.3     
  30 N30           -7.3459   -10.0537    -1.1446 N.am    
  31 C31           -8.0807   -10.2545    -2.2521 C.2     
  32 C32           -7.9978   -10.6268     0.0389 C.3     
  33 C33           -9.4710   -10.8492    -0.3692 C.3     
  34 C34           -9.3529   -10.9959    -1.9051 C.3     
  35 O35           -7.7693    -9.8933    -3.3672 O.2     
  36 C36            1.1843    -0.1704     0.9422 C.2     
  37 C37            1.9897     0.9434     0.6810 C.2     
  38 C38            1.2117     1.8618     0.0457 C.2     
  39 O39            1.6196     3.0808    -0.3789 O.3     
  40 C40            0.6458     3.9011    -1.0274 C.3     
  41 O41           -1.1195    -1.8278     1.0081 O.2     
  42 H42           -2.4650     0.5904    -0.3649 H       
  43 H43           -6.8501    -1.2067     0.1170 H       
  44 H44           -6.4780    -3.6048    -0.2572 H       
  45 H45           -2.2443    -2.9217    -0.4247 H       
  46 H46           -4.9699     0.5522     2.3713 H       
  47 H47           -3.3789     0.8268     1.6211 H       
  48 H48           -6.7821     0.6668    -0.8096 H       
  49 H49           -6.9605     0.4587     0.9495 H       
  50 H50           -6.0640     3.0065    -0.4734 H       
  51 H51           -7.6550     2.7320     0.2768 H       
  52 H52           -4.2518     2.8920     2.7074 H       
  53 H53           -4.0734     3.1001     0.9483 H       
  54 H54           -5.1524     4.8823     0.1128 H       
  55 H55           -7.8219     6.3772     3.9779 H       
  56 H56           -6.8657     8.0294     2.4243 H       
  57 H57           -5.5330     7.2838     0.4946 H       
  58 H58           -6.9009     3.4888     4.6796 H       
  59 H59           -8.5360     4.0801     4.2990 H       
  60 H60           -7.8206     2.7622     3.3400 H       
  61 H61           -6.0659    -5.3648    -0.5394 H       
  62 H62           -4.4347    -7.2814    -1.8210 H       
  63 H63           -4.3261    -7.5379    -0.0629 H       
  64 H64           -6.7959    -7.7181     0.0634 H       
  65 H65           -6.9045    -7.4615    -1.6947 H       
  66 H66           -5.5494    -9.5028    -2.0762 H       
  67 H67           -5.4408    -9.7593    -0.3182 H       
  68 H68           -7.5322   -11.5762     0.3033 H       
  69 H69           -7.9391    -9.9311     0.8759 H       
  70 H70           -9.8666   -11.7607     0.0789 H       
  71 H71          -10.0837    -9.9879    -0.1032 H       
  72 H72          -10.2091   -10.5366    -2.3991 H       
  73 H73           -9.2696   -12.0467    -2.1826 H       
  74 H74            1.4856    -1.0824     1.4362 H       
  75 H75            3.0334     1.0538     0.9358 H       
  76 H76            1.1025     4.8477    -1.3164 H       
  77 H77            0.2744     3.3907    -1.9160 H       
  78 H78           -0.1824     4.0908    -0.3446 H       
@<TRIPOS>BOND
   1    1    2 1
   2    1   38 1
   3    2    3 1
   4    2   36 2
   5    3    4 am
   6    3   41 2
   7    4    5 1
   8    4   42 1
   9    5    6 ar
  10    5   10 ar
  11    6    7 ar
  12    6   11 1
  13    7    8 ar
  14    7   43 1
  15    8    9 ar
  16    8   44 1
  17    9   10 ar
  18    9   24 1
  19   10   45 1
  20   11   12 1
  21   11   13 1
  22   12   16 1
  23   12   46 1
  24   12   47 1
  25   13   14 1
  26   13   48 1
  27   13   49 1
  28   14   15 1
  29   14   50 1
  30   14   51 1
  31   15   16 1
  32   15   17 1
  33   16   52 1
  34   16   53 1
  35   17   18 ar
  36   17   19 ar
  37   18   22 ar
  38   18   54 1
  39   19   20 ar
  40   19   23 1
  41   20   21 ar
  42   20   55 1
  43   21   22 ar
  44   21   56 1
  45   22   57 1
  46   23   58 1
  47   23   59 1
  48   23   60 1
  49   24   25 am
  50   24   26 2
  51   25   27 1
  52   25   61 1
  53   27   28 1
  54   27   62 1
  55   27   63 1
  56   28   29 1
  57   28   64 1
  58   28   65 1
  59   29   30 1
  60   29   66 1
  61   29   67 1
  62   30   31 am
  63   30   32 1
  64   31   35 2
  65   31   34 1
  66   32   33 1
  67   32   68 1
  68   32   69 1
  69   33   34 1
  70   33   70 1
  71   33   71 1
  72   34   72 1
  73   34   73 1
  74   36   37 1
  75   36   74 1
  76   37   38 2
  77   37   75 1
  78   38   39 1
  79   39   40 1
  80   40   76 1
  81   40   77 1
  82   40   78 1

#	End of record

