#	Name: ASD01882148
#	Creating user name:	WinNT
#	Creation time:	15. 06. 2019 19:44

#	Modifying user name:	WinNT
#	Modification time:	15. 06. 2019 19:44

#	Program:	/corina/corina34_cracker 3.40 0067  02.08.2006

@<TRIPOS>MOLECULE
ASD01882148
  13   12    0    0    0
SMALL
NO_CHARGES


@<TRIPOS>ATOM
   1 C1            -0.0184     1.5028     0.0103 C.2     
   2 C2             0.0021    -0.0041     0.0020 C.3     
   3 C3            -0.7241    -0.5171    -1.2431 C.3     
   4 C4            -0.8126    -2.0436    -1.1892 C.3     
   5 O5             1.0191     2.1207     0.0037 O.2     
   6 F6            -1.5191    -2.4296    -0.0451 F       
   7 F7            -1.4766    -2.5127    -2.3277 F       
   8 F8             0.4770    -2.5842    -1.1455 F       
   9 Br9            1.8643    -0.6341    -0.0191 Br      
  10 H10           -0.9609     2.0300     0.0176 H       
  11 H11           -0.4983    -0.3791     0.8948 H       
  12 H12           -1.7288    -0.0959    -1.2772 H       
  13 H13           -0.1736    -0.2164    -2.1345 H       
@<TRIPOS>BOND
   1    1    2 1
   2    1    5 2
   3    1   10 1
   4    2    3 1
   5    2    9 1
   6    2   11 1
   7    3    4 1
   8    3   12 1
   9    3   13 1
  10    4    6 1
  11    4    7 1
  12    4    8 1

#	End of record

