#	Name: ASD01915331
#	Creating user name:	WinNT
#	Creation time:	15. 06. 2019 20:05

#	Modifying user name:	WinNT
#	Modification time:	15. 06. 2019 20:05

#	Program:	/corina/corina34_cracker 3.40 0067  02.08.2006

@<TRIPOS>MOLECULE
ASD01915331
  35   37    0    0    0
SMALL
NO_CHARGES


@<TRIPOS>ATOM
   1 C1            -0.0046     1.3249    -0.0196 C.2     
   2 N2             0.0094    -0.0259    -0.0289 N.pl3   
   3 C3            -1.3057    -0.4566    -0.0124 C.2     
   4 C4            -2.0826     0.6209     0.0063 C.2     
   5 O5            -1.2941     1.7193     0.0062 O.3     
   6 N6             1.2473     1.7376    -0.0350 N.2     
   7 C7             2.0664     0.6884    -0.0539 C.2     
   8 N8             1.3554    -0.4112    -0.0509 N.2     
   9 C9            -3.5894     0.6193     0.0285 C.3     
  10 C10           -1.7724    -1.8896    -0.0155 C.3     
  11 C11           -4.0807     1.2196     1.3472 C.3     
  12 O12           -4.0907     1.4114    -1.0804 O.3     
  13 C13           -5.2813     1.0542    -1.5978 C.2     
  14 N14           -5.8036     1.7478    -2.6286 N.am    
  15 O15           -5.8850     0.1065    -1.1353 O.2     
  16 C16           -6.9842     1.3105    -3.2396 C.ar    
  17 C17           -7.8981     2.2344    -3.7273 C.ar    
  18 C18           -9.0644     1.7985    -4.3308 C.ar    
  19 C19           -9.3189     0.4423    -4.4478 C.ar    
  20 C20           -8.4091    -0.4787    -3.9623 C.ar    
  21 C21           -7.2408    -0.0489    -3.3642 C.ar    
  22 F22           -9.9553     2.6963    -4.8057 F       
  23 H23            3.1453     0.7365    -0.0691 H       
  24 H24           -3.9530    -0.4043    -0.0626 H       
  25 H25           -0.9078    -2.5532    -0.0326 H       
  26 H26           -2.3606    -2.0821     0.8817 H       
  27 H27           -2.3862    -2.0698    -0.8980 H       
  28 H28           -3.7171     2.2431     1.4383 H       
  29 H29           -5.1706     1.2184     1.3633 H       
  30 H30           -3.7044     0.6249     2.1796 H       
  31 H31           -5.3611     2.5502    -2.9469 H       
  32 H32           -7.6993     3.2919    -3.6355 H       
  33 H33          -10.2298     0.1034    -4.9188 H       
  34 H34           -8.6104    -1.5358    -4.0546 H       
  35 H35           -6.5311    -0.7695    -2.9854 H       
@<TRIPOS>BOND
   1    1    2 1
   2    1    6 2
   3    1    5 1
   4    2    3 1
   5    2    8 1
   6    3    4 2
   7    3   10 1
   8    4    5 1
   9    4    9 1
  10    6    7 1
  11    7    8 2
  12    7   23 1
  13    9   11 1
  14    9   12 1
  15    9   24 1
  16   10   25 1
  17   10   26 1
  18   10   27 1
  19   11   28 1
  20   11   29 1
  21   11   30 1
  22   12   13 1
  23   13   14 am
  24   13   15 2
  25   14   16 1
  26   14   31 1
  27   16   17 ar
  28   16   21 ar
  29   17   18 ar
  30   17   32 1
  31   18   19 ar
  32   18   22 1
  33   19   20 ar
  34   19   33 1
  35   20   21 ar
  36   20   34 1
  37   21   35 1

#	End of record

