#	Name: ASD03090573
#	Creating user name:	WinNT
#	Creation time:	15. 06. 2019 20:29

#	Modifying user name:	WinNT
#	Modification time:	15. 06. 2019 20:29

#	Program:	/corina/corina34_cracker 3.40 0067  02.08.2006

@<TRIPOS>MOLECULE
ASD03090573
  31   32    0    0    0
SMALL
NO_CHARGES


@<TRIPOS>ATOM
   1 N1            -0.0162     1.3436     0.0094 N.am    
   2 C2            -0.1347     0.0013     0.0382 C.2     
   3 O3             0.8564    -0.6983    -0.0420 O.2     
   4 N4            -1.3519    -0.5653     0.1560 N.am    
   5 O5            -2.3643    -3.8320     0.2909 O.3     
   6 N6            -2.5807    -2.6424     0.2948 N.2     
   7 C7            -1.4745    -1.9544     0.1858 C.2     
   8 C8            -0.4227    -2.9052     0.1035 C.2     
   9 C9            -1.0551    -4.0984     0.1763 C.2     
  10 C10           -0.4137    -5.4615     0.1360 C.3     
  11 C11            1.2544     1.9350     0.0099 C.ar    
  12 C12            1.4705     3.1261    -0.6798 C.ar    
  13 C13            2.7278     3.7067    -0.6764 C.ar    
  14 C14            3.7663     3.1043     0.0101 C.ar    
  15 C15            3.5530     1.9217     0.6953 C.ar    
  16 C16            2.2982     1.3391     0.7015 C.ar    
  17 O17            0.4488     3.7173    -1.3554 O.3     
  18 C18            0.7433     4.9367    -2.0398 C.3     
  19 Cl19           4.8610     1.1704     1.5545 Cl      
  20 H20           -0.8102     1.9001    -0.0157 H       
  21 H21           -2.1426    -0.0071     0.2201 H       
  22 H22            0.6366    -2.7186     0.0057 H       
  23 H23           -1.1845    -6.2282     0.2149 H       
  24 H24            0.1240    -5.5823    -0.8044 H       
  25 H25            0.2832    -5.5599     0.9683 H       
  26 H26            2.8975     4.6300    -1.2104 H       
  27 H27            4.7463     3.5582     0.0110 H       
  28 H28            2.1328     0.4181     1.2407 H       
  29 H29            1.0900     5.6811    -1.3230 H       
  30 H30            1.5208     4.7578    -2.7825 H       
  31 H31           -0.1561     5.3012    -2.5360 H       
@<TRIPOS>BOND
   1    1    2 am
   2    1   11 1
   3    1   20 1
   4    2    3 2
   5    2    4 am
   6    4    7 1
   7    4   21 1
   8    5    6 1
   9    5    9 1
  10    6    7 2
  11    7    8 1
  12    8    9 2
  13    8   22 1
  14    9   10 1
  15   10   23 1
  16   10   24 1
  17   10   25 1
  18   11   12 ar
  19   11   16 ar
  20   12   13 ar
  21   12   17 1
  22   13   14 ar
  23   13   26 1
  24   14   15 ar
  25   14   27 1
  26   15   16 ar
  27   15   19 1
  28   16   28 1
  29   17   18 1
  30   18   29 1
  31   18   30 1
  32   18   31 1

#	End of record

