#	Name: ASD07930474
#	Creating user name:	WinNT
#	Creation time:	15. 06. 2019 21:12

#	Modifying user name:	WinNT
#	Modification time:	15. 06. 2019 21:12

#	Program:	/corina/corina34_cracker 3.40 0067  02.08.2006

@<TRIPOS>MOLECULE
ASD07930474
  48   50    0    0    0
SMALL
NO_CHARGES


@<TRIPOS>ATOM
   1 C1            -0.1440     1.4651     0.3080 C.3     
   2 N2             0.5901    -0.2181    -2.0454 N.2     
   3 N3            -0.9974    -1.6994    -1.1810 N.pl3   
   4 C4            -0.9256    -2.8146    -0.2311 C.3     
   5 C5            -1.1671    -2.2857     1.1894 C.3     
   6 S6             0.0523    -0.9765     1.5264 S.o2    
   7 N7            -0.0851     0.0063     0.1878 N.am    
   8 C8            -0.1415    -0.6254    -1.0465 C.2     
   9 C9             0.4586    -3.4620    -0.3069 C.3     
  10 C10           -1.9794    -3.8360    -0.5737 C.ar    
  11 C11           -2.8117    -3.6319    -1.6564 C.ar    
  12 C12           -3.7828    -4.5738    -1.9716 C.ar    
  13 C13           -3.9137    -5.7186    -1.1965 C.ar    
  14 C14           -3.0784    -5.9177    -0.1146 C.ar    
  15 C15           -2.1082    -4.9806     0.1938 C.ar    
  16 N16           -4.6277    -4.3694    -3.0675 N.am    
  17 C17           -5.0475    -5.4199    -3.8000 C.2     
  18 O18           -4.6179    -6.5332    -3.5679 O.2     
  19 O19           -0.3688    -0.1624     2.6123 O.2     
  20 O20            1.3755    -1.4901     1.4585 O.2     
  21 Cl21          -1.0601    -5.2340     1.5542 Cl      
  22 C22           -6.0308    -5.2184    -4.8859 C.ar    
  23 N23           -6.5019    -3.9989    -5.1406 N.ar    
  24 C24           -7.3767    -3.8205    -6.1069 C.ar    
  25 C25           -7.8116    -4.9085    -6.8655 C.ar    
  26 N26           -7.3438    -6.1235    -6.6134 N.ar    
  27 C27           -6.4613    -6.3041    -5.6478 C.ar    
  28 O28           -8.7129    -4.7232    -7.8600 O.3     
  29 C29           -9.1140    -5.8806    -8.5960 C.3     
  30 H30            0.8655     1.8741     0.2673 H       
  31 H31           -0.7349     1.8737    -0.5118 H       
  32 H32           -0.6065     1.7330     1.2580 H       
  33 H33            1.1866     0.5384    -1.9329 H       
  34 H34           -1.6427    -1.7186    -1.9049 H       
  35 H35           -2.1749    -1.8769     1.2630 H       
  36 H36           -1.0450    -3.0955     1.9087 H       
  37 H37            1.2196    -2.7227    -0.0570 H       
  38 H38            0.5112    -4.2906     0.3992 H       
  39 H39            0.6310    -3.8338    -1.3169 H       
  40 H40           -2.7081    -2.7406    -2.2574 H       
  41 H41           -4.6681    -6.4523    -1.4391 H       
  42 H42           -3.1800    -6.8077     0.4888 H       
  43 H43           -4.9114    -3.4715    -3.3004 H       
  44 H44           -7.7588    -2.8317    -6.3131 H       
  45 H45           -6.0799    -7.2935    -5.4425 H       
  46 H46           -8.2417    -6.3293    -9.0712 H       
  47 H47           -9.5700    -6.6022    -7.9182 H       
  48 H48           -9.8363    -5.5930    -9.3600 H       
@<TRIPOS>BOND
   1    1    7 1
   2    1   30 1
   3    1   31 1
   4    1   32 1
   5    2    8 2
   6    2   33 1
   7    3    4 1
   8    3    8 1
   9    3   34 1
  10    4    5 1
  11    4    9 1
  12    4   10 1
  13    5    6 1
  14    5   35 1
  15    5   36 1
  16    6    7 am
  17    6   19 2
  18    6   20 2
  19    7    8 1
  20    9   37 1
  21    9   38 1
  22    9   39 1
  23   10   11 ar
  24   10   15 ar
  25   11   12 ar
  26   11   40 1
  27   12   13 ar
  28   12   16 1
  29   13   14 ar
  30   13   41 1
  31   14   15 ar
  32   14   42 1
  33   15   21 1
  34   16   17 am
  35   16   43 1
  36   17   18 2
  37   17   22 1
  38   22   23 ar
  39   22   27 ar
  40   23   24 ar
  41   24   25 ar
  42   24   44 1
  43   25   26 ar
  44   25   28 1
  45   26   27 ar
  46   27   45 1
  47   28   29 1
  48   29   46 1
  49   29   47 1
  50   29   48 1

#	End of record

