#	Name: ASD01815986
#	Creating user name:	WinNT
#	Creation time:	15. 06. 2019 19:34

#	Modifying user name:	WinNT
#	Modification time:	15. 06. 2019 19:34

#	Program:	/corina/corina34_cracker 3.40 0067  02.08.2006

@<TRIPOS>MOLECULE
ASD01815986
  41   45    0    0    0
SMALL
NO_CHARGES


@<TRIPOS>ATOM
   1 C1             0.3071     1.3823    -1.5320 C.ar    
   2 C2             0.3224    -0.0030    -1.5211 C.ar    
   3 C3             1.4119    -0.6902    -1.0271 C.ar    
   4 C4             2.5092     0.0063    -0.5337 C.ar    
   5 C5             2.4907     1.4109    -0.5462 C.ar    
   6 C6             1.3862     2.0923    -1.0468 C.ar    
   7 N7             3.6066    -0.6779    -0.0356 N.pl3   
   8 C8             4.6946    -0.0575     0.4539 C.2     
   9 C9             4.7887     1.3115     0.4918 C.2     
  10 C10            3.6655     2.1304    -0.0179 C.2     
  11 C11            5.7893     2.2750     0.9407 C.2     
  12 N12            5.2682     3.4977     0.7012 N.am    
  13 N13            3.9992     3.3806     0.1287 N.2     
  14 C14            5.9086     4.7104     0.9867 C.ar    
  15 O15            6.8775     2.0258     1.4335 O.2     
  16 C16            3.5811    -2.0767    -0.0419 C.ar    
  17 C17            6.8021     5.2569     0.0753 C.ar    
  18 C18            7.4321     6.4528     0.3595 C.ar    
  19 C19            7.1744     7.1070     1.5504 C.ar    
  20 C20            6.2854     6.5670     2.4614 C.ar    
  21 C21            5.6465     5.3727     2.1811 C.ar    
  22 F22            4.7778     4.8450     3.0711 F       
  23 C23            4.0660    -2.7768    -1.1393 C.ar    
  24 C24            4.0394    -4.1575    -1.1423 C.ar    
  25 C25            3.5303    -4.8432    -0.0546 C.ar    
  26 C26            3.0469    -4.1493     1.0396 C.ar    
  27 C27            3.0762    -2.7686     1.0516 C.ar    
  28 H28           -0.5502     1.9081    -1.9257 H       
  29 H29           -0.5270    -0.5503    -1.9025 H       
  30 H30            1.4122    -1.7701    -1.0234 H       
  31 H31            1.3736     3.1722    -1.0561 H       
  32 H32            5.5156    -0.6516     0.8271 H       
  33 H33            7.0047     4.7471    -0.8550 H       
  34 H34            8.1274     6.8776    -0.3494 H       
  35 H35            7.6690     8.0417     1.7695 H       
  36 H36            6.0864     7.0804     3.3905 H       
  37 H37            4.4630    -2.2419    -1.9894 H       
  38 H38            4.4162    -4.7024    -1.9953 H       
  39 H39            3.5100    -5.9230    -0.0598 H       
  40 H40            2.6497    -4.6878     1.8873 H       
  41 H41            2.6988    -2.2273     1.9066 H       
@<TRIPOS>BOND
   1    1    2 ar
   2    1    6 ar
   3    1   28 1
   4    2    3 ar
   5    2   29 1
   6    3    4 ar
   7    3   30 1
   8    4    5 ar
   9    4    7 1
  10    5    6 ar
  11    5   10 1
  12    6   31 1
  13    7    8 1
  14    7   16 1
  15    8    9 2
  16    8   32 1
  17    9   10 1
  18    9   11 1
  19   10   13 2
  20   11   12 am
  21   11   15 2
  22   12   13 1
  23   12   14 1
  24   14   17 ar
  25   14   21 ar
  26   16   23 ar
  27   16   27 ar
  28   17   18 ar
  29   17   33 1
  30   18   19 ar
  31   18   34 1
  32   19   20 ar
  33   19   35 1
  34   20   21 ar
  35   20   36 1
  36   21   22 1
  37   23   24 ar
  38   23   37 1
  39   24   25 ar
  40   24   38 1
  41   25   26 ar
  42   25   39 1
  43   26   27 ar
  44   26   40 1
  45   27   41 1

#	End of record

