#	Name: ASD01912340
#	Creating user name:	WinNT
#	Creation time:	15. 06. 2019 19:59

#	Modifying user name:	WinNT
#	Modification time:	15. 06. 2019 19:59

#	Program:	/corina/corina34_cracker 3.40 0067  02.08.2006

@<TRIPOS>MOLECULE
ASD01912340
  48   50    0    0    0
SMALL
NO_CHARGES


@<TRIPOS>ATOM
   1 C1            -0.0970     1.3381     2.0390 C.ar    
   2 C2            -0.1129    -0.0277     2.3367 C.ar    
   3 C3             1.0808    -0.6679     2.6145 C.ar    
   4 C4             2.2542     0.0744     2.5867 C.ar    
   5 C5             2.1986     1.4228     2.2846 C.ar    
   6 N6             1.0497     2.0115     2.0233 N.ar    
   7 C7             3.4708     2.2301     2.2539 C.3     
   8 C8            -1.3235     2.0155     1.7431 C.1     
   9 C9            -2.3289     2.5709     1.5005 C.1     
  10 C10           -3.5553     3.2484     1.2046 C.2     
  11 N11           -3.6563     7.2458     1.4605 N.am    
  12 C12           -4.9259     6.5102     1.5215 C.3     
  13 C13           -4.8305     5.2839     0.6049 C.3     
  14 C14           -3.5456     4.5500     0.9202 C.2     
  15 C15           -2.2492     5.3299     0.9043 C.3     
  16 C16           -2.4093     6.5550     1.8134 C.3     
  17 C17           -3.6352     8.5385     1.0796 C.2     
  18 C18           -2.3756     9.3045     1.1387 C.ar    
  19 C19           -1.9454    10.0406     0.0261 C.ar    
  20 C20           -0.7602    10.7572     0.0930 C.ar    
  21 C21           -0.0078    10.7444     1.2510 C.ar    
  22 C22           -0.4295    10.0183     2.3525 C.ar    
  23 C23           -1.6079     9.3049     2.3055 C.ar    
  24 O24           -4.6542     9.0734     0.6874 O.2     
  25 O25           -2.6849    10.0515    -1.1110 O.3     
  26 C26           -2.1835    10.8241    -2.2036 C.3     
  27 H27           -1.0440    -0.5748     2.3499 H       
  28 H28            1.1002    -1.7221     2.8483 H       
  29 H29            3.2021    -0.3973     2.7996 H       
  30 H30            3.8922     2.2060     1.2490 H       
  31 H31            3.2534     3.2614     2.5321 H       
  32 H32            4.1867     1.8070     2.9584 H       
  33 H33           -4.4882     2.7043     1.2119 H       
  34 H34           -5.1122     6.1871     2.5457 H       
  35 H35           -5.7383     7.1548     1.1860 H       
  36 H36           -5.6816     4.6263     0.7819 H       
  37 H37           -4.8240     5.6041    -0.4370 H       
  38 H38           -1.4386     4.7020     1.2740 H       
  39 H39           -2.0284     5.6540    -0.1127 H       
  40 H40           -1.5649     7.2293     1.6701 H       
  41 H41           -2.4511     6.2346     2.8544 H       
  42 H42           -0.4248    11.3258    -0.7618 H       
  43 H43            0.9149    11.3036     1.2979 H       
  44 H44            0.1658    10.0141     3.2536 H       
  45 H45           -1.9351     8.7438     3.1683 H       
  46 H46           -1.2032    10.4472    -2.4954 H       
  47 H47           -2.8686    10.7467    -3.0479 H       
  48 H48           -2.0963    11.8676    -1.9010 H       
@<TRIPOS>BOND
   1    1    2 ar
   2    1    6 ar
   3    1    8 1
   4    2    3 ar
   5    2   27 1
   6    3    4 ar
   7    3   28 1
   8    4    5 ar
   9    4   29 1
  10    5    6 ar
  11    5    7 1
  12    7   30 1
  13    7   31 1
  14    7   32 1
  15    8    9 3
  16    9   10 1
  17   10   14 2
  18   10   33 1
  19   11   12 1
  20   11   16 1
  21   11   17 am
  22   12   13 1
  23   12   34 1
  24   12   35 1
  25   13   14 1
  26   13   36 1
  27   13   37 1
  28   14   15 1
  29   15   16 1
  30   15   38 1
  31   15   39 1
  32   16   40 1
  33   16   41 1
  34   17   18 1
  35   17   24 2
  36   18   19 ar
  37   18   23 ar
  38   19   20 ar
  39   19   25 1
  40   20   21 ar
  41   20   42 1
  42   21   22 ar
  43   21   43 1
  44   22   23 ar
  45   22   44 1
  46   23   45 1
  47   25   26 1
  48   26   46 1
  49   26   47 1
  50   26   48 1

#	End of record

