#	Name: ASD01910179
#	Creating user name:	WinNT
#	Creation time:	15. 06. 2019 19:55

#	Modifying user name:	WinNT
#	Modification time:	15. 06. 2019 19:55

#	Program:	/corina/corina34_cracker 3.40 0067  02.08.2006

@<TRIPOS>MOLECULE
ASD01910179
  43   45    0    0    0
SMALL
NO_CHARGES


@<TRIPOS>ATOM
   1 C1             0.1647     1.6633    -0.3711 C.ar    
   2 C2             0.1010     0.2851    -0.3048 C.ar    
   3 C3             1.2654    -0.4598    -0.1615 C.ar    
   4 C4             2.4929     0.1824    -0.0849 C.ar    
   5 C5             2.5534     1.5673    -0.1519 C.ar    
   6 C6             1.3856     2.3060    -0.2952 C.ar    
   7 N7             3.7886     2.2185    -0.0746 N.am    
   8 C8             4.0023     3.3445    -0.7838 C.2     
   9 C9             5.2625     4.0979    -0.6126 C.ar    
  10 N10            1.2000    -1.8551    -0.0940 N.am    
  11 C11            2.1784    -2.6029    -0.6417 C.2     
  12 C12            5.4867     5.2643    -1.3455 C.ar    
  13 C13            6.6648     5.9636    -1.1810 C.ar    
  14 C14            7.6233     5.5111    -0.2924 C.ar    
  15 C15            7.4077     4.3545     0.4382 C.ar    
  16 C16            6.2308     3.6489     0.2871 C.ar    
  17 O17            3.1590    -2.0658    -1.1189 O.2     
  18 O18            3.1586     3.7406    -1.5643 O.2     
  19 C19            2.0592    -4.0760    -0.6620 C.ar    
  20 Cl20           8.6168     3.7946     1.5510 Cl      
  21 C21            0.9347    -4.6958    -0.1148 C.ar    
  22 C22            0.8295    -6.0714    -0.1375 C.ar    
  23 C23            1.8354    -6.8360    -0.7009 C.ar    
  24 C24            2.9531    -6.2278    -1.2447 C.ar    
  25 C25            3.0682    -4.8533    -1.2337 C.ar    
  26 C26            4.0444    -7.0687    -1.8554 C.3     
  27 F27            3.7026    -8.4216    -1.7540 F       
  28 F28            4.1981    -6.7263    -3.2031 F       
  29 F29            5.2456    -6.8391    -1.1760 F       
  30 H30           -0.7412     2.2397    -0.4871 H       
  31 H31           -0.8548    -0.2142    -0.3641 H       
  32 H32            3.3992    -0.3941     0.0268 H       
  33 H33            1.4321     3.3837    -0.3473 H       
  34 H34            4.4916     1.8598     0.4893 H       
  35 H35            0.4504    -2.2847     0.3471 H       
  36 H36            4.7397     5.6187    -2.0403 H       
  37 H37            6.8390     6.8663    -1.7478 H       
  38 H38            8.5440     6.0618    -0.1681 H       
  39 H39            6.0631     2.7472     0.8574 H       
  40 H40            0.1489    -4.1001     0.3256 H       
  41 H41           -0.0399    -6.5523     0.2859 H       
  42 H42            1.7481    -7.9123    -0.7160 H       
  43 H43            3.9409    -4.3798    -1.6587 H       
@<TRIPOS>BOND
   1    1    2 ar
   2    1    6 ar
   3    1   30 1
   4    2    3 ar
   5    2   31 1
   6    3    4 ar
   7    3   10 1
   8    4    5 ar
   9    4   32 1
  10    5    6 ar
  11    5    7 1
  12    6   33 1
  13    7    8 am
  14    7   34 1
  15    8    9 1
  16    8   18 2
  17    9   12 ar
  18    9   16 ar
  19   10   11 am
  20   10   35 1
  21   11   17 2
  22   11   19 1
  23   12   13 ar
  24   12   36 1
  25   13   14 ar
  26   13   37 1
  27   14   15 ar
  28   14   38 1
  29   15   16 ar
  30   15   20 1
  31   16   39 1
  32   19   21 ar
  33   19   25 ar
  34   21   22 ar
  35   21   40 1
  36   22   23 ar
  37   22   41 1
  38   23   24 ar
  39   23   42 1
  40   24   25 ar
  41   24   26 1
  42   25   43 1
  43   26   27 1
  44   26   28 1
  45   26   29 1

#	End of record

