#	Name: ASD04560195
#	Creating user name:	WinNT
#	Creation time:	15. 06. 2019 20:49

#	Modifying user name:	WinNT
#	Modification time:	15. 06. 2019 20:49

#	Program:	/corina/corina34_cracker 3.40 0067  02.08.2006

@<TRIPOS>MOLECULE
ASD04560195
  37   39    0    0    0
SMALL
NO_CHARGES


@<TRIPOS>ATOM
   1 C1            -0.9880     6.5604    -2.3778 C.ar    
   2 C2            -2.1137     7.0923    -2.9752 C.ar    
   3 C3            -3.3472     6.9699    -2.3622 C.ar    
   4 C4            -3.4577     6.3139    -1.1488 C.ar    
   5 C5            -2.3341     5.7794    -0.5461 C.ar    
   6 C6            -1.0949     5.9012    -1.1599 C.ar    
   7 N7             0.0443     5.3613    -0.5526 N.am    
   8 C8             1.2279     5.9979    -0.6542 C.2     
   9 N9             2.3048     5.5277     0.0059 N.am    
  10 O10            1.3241     6.9964    -1.3414 O.2     
  11 C11            3.5562     6.1314    -0.1752 C.ar    
  12 C12            3.6459     7.4992    -0.3587 C.ar    
  13 C13            4.7131     5.3563    -0.1652 C.ar    
  14 C14            5.9427     5.9374    -0.3411 C.ar    
  15 C15            4.8887     8.1005    -0.5388 C.ar    
  16 S16            5.3350     9.7858    -0.7941 S.3     
  17 C17            6.0560     7.3305    -0.5347 C.ar    
  18 N18            7.1699     8.0676    -0.7211 N.2     
  19 C19            7.0330     9.3381    -0.8767 C.2     
  20 N20            8.0767    10.2274    -1.0780 N.am    
  21 C21            9.3462     9.7772    -1.1248 C.2     
  22 C22           10.4810    10.7442    -1.3437 C.3     
  23 O23            9.5752     8.5938    -0.9908 O.2     
  24 Cl24          -5.0081     6.1625    -0.3826 Cl      
  25 H25           -0.0258     6.6529    -2.8594 H       
  26 H26           -2.0306     7.6049    -3.9222 H       
  27 H27           -4.2259     7.3875    -2.8311 H       
  28 H28           -2.4203     5.2680     0.4013 H       
  29 H29           -0.0179     4.5289    -0.0584 H       
  30 H30            2.2135     4.7714     0.6064 H       
  31 H31            2.7500     8.1023    -0.3626 H       
  32 H32            4.6414     4.2889    -0.0173 H       
  33 H33            6.8315     5.3239    -0.3310 H       
  34 H34            7.8935    11.1739    -1.1852 H       
  35 H35           10.0838    11.7545    -1.4414 H       
  36 H36           11.1629    10.7025    -0.4943 H       
  37 H37           11.0173    10.4751    -2.2537 H       
@<TRIPOS>BOND
   1    1    2 ar
   2    1    6 ar
   3    1   25 1
   4    2    3 ar
   5    2   26 1
   6    3    4 ar
   7    3   27 1
   8    4    5 ar
   9    4   24 1
  10    5    6 ar
  11    5   28 1
  12    6    7 1
  13    7    8 am
  14    7   29 1
  15    8    9 am
  16    8   10 2
  17    9   11 1
  18    9   30 1
  19   11   13 ar
  20   11   12 ar
  21   12   15 ar
  22   12   31 1
  23   13   14 ar
  24   13   32 1
  25   14   17 ar
  26   14   33 1
  27   15   17 ar
  28   15   16 1
  29   16   19 1
  30   17   18 1
  31   18   19 2
  32   19   20 1
  33   20   21 am
  34   20   34 1
  35   21   22 1
  36   21   23 2
  37   22   35 1
  38   22   36 1
  39   22   37 1

#	End of record

