#	Name: ASD08710076
#	Creating user name:	WinNT
#	Creation time:	15. 06. 2019 21:19

#	Modifying user name:	WinNT
#	Modification time:	15. 06. 2019 21:19

#	Program:	/corina/corina34_cracker 3.40 0067  02.08.2006

@<TRIPOS>MOLECULE
ASD08710076
  65   67    0    0    0
SMALL
NO_CHARGES


@<TRIPOS>ATOM
   1 C1             0.7764     0.0027     1.0259 C.1     
   2 C2             0.4506     1.3311     0.6021 C.ar    
   3 C3             1.4505     2.3039     0.5236 C.ar    
   4 C4             1.1383     3.5811     0.1163 C.ar    
   5 C5            -0.1808     3.9051    -0.2192 C.ar    
   6 C6            -1.1811     2.9305    -0.1403 C.ar    
   7 C7            -0.8657     1.6521     0.2618 C.ar    
   8 N8             1.0350    -1.0512     1.3622 N.1     
   9 C9            -0.5160     5.2711    -0.6545 C.2     
  10 O10            0.3529     6.1132    -0.7314 O.2     
  11 S11           -2.1798     5.6821    -1.0637 S.o2    
  12 O12           -2.1438     6.9854    -1.6288 O.2     
  13 O13           -2.7160     4.5550    -1.7430 O.2     
  14 N14           -3.0167     5.8123     0.3593 N.am    
  15 C15           -3.1093     7.0990     1.0656 C.3     
  16 C16           -4.5839     7.3806     1.3730 C.3     
  17 N17           -5.1585     6.2351     2.0910 N.3     
  18 C18           -5.1391     5.0224     1.2622 C.3     
  19 C19           -3.6923     4.6455     0.9471 C.3     
  20 C20           -6.7508     6.5248     3.8885 C.ar    
  21 C21           -6.4564     6.5199     2.5334 C.ar    
  22 C22           -7.4679     6.8023     1.6172 C.ar    
  23 C23           -8.7349     7.0783     2.0988 C.ar    
  24 C24           -8.9559     7.0651     3.4715 C.ar    
  25 N25           -7.9713     6.7926     4.3129 N.ar    
  26 N26          -10.2282     7.3422     3.9669 N.3     
  27 C27          -10.2476     7.2767     5.4354 C.3     
  28 C28          -11.6457     7.6453     5.9389 C.3     
  29 O29          -12.6072     6.7688     5.3451 O.3     
  30 C30          -12.6160     6.8076     3.9155 C.3     
  31 C31          -11.2278     6.4305     3.3915 C.3     
  32 C32           -5.6661     6.2146     4.8876 C.3     
  33 C33           -4.6938     8.6351     2.2419 C.3     
  34 C34            2.2168     4.6303     0.0322 C.3     
  35 H35            2.4686     2.0537     0.7829 H       
  36 H36           -2.1996     3.1796    -0.3990 H       
  37 H37           -1.6370     0.8983     0.3186 H       
  38 H38           -2.5447     7.0471     1.9965 H       
  39 H39           -2.7087     7.8926     0.4349 H       
  40 H40           -5.1268     7.5349     0.4405 H       
  41 H41           -5.6200     4.2059     1.8009 H       
  42 H42           -5.6742     5.2095     0.3312 H       
  43 H43           -3.6771     3.8178     0.2381 H       
  44 H44           -3.1848     4.3533     1.8664 H       
  45 H45           -7.2672     6.8058     0.5560 H       
  46 H46           -9.5422     7.3017     1.4172 H       
  47 H47           -9.9995     6.2656     5.7580 H       
  48 H48           -9.5182     7.9781     5.8407 H       
  49 H49          -11.6807     7.5428     7.0235 H       
  50 H50          -11.8724     8.6750     5.6625 H       
  51 H51          -13.3528     6.0992     3.5367 H       
  52 H52          -12.8709     7.8129     3.5803 H       
  53 H53          -11.2138     6.5141     2.3048 H       
  54 H54          -10.9953     5.4058     3.6814 H       
  55 H55           -5.2220     7.1448     5.2423 H       
  56 H56           -6.0931     5.6713     5.7306 H       
  57 H57           -4.8986     5.6035     4.4127 H       
  58 H58           -4.1828     9.4632     1.7507 H       
  59 H59           -5.7445     8.8887     2.3827 H       
  60 H60           -4.2323     8.4472     3.2114 H       
  61 H61            2.5623     4.7144    -0.9981 H       
  62 H62            1.8170     5.5896     0.3609 H       
  63 H63            3.0513     4.3457     0.6732 H       
  64 Cl64           8.0513    14.4632    12.0235 Cl      
  65 H65            8.0513    15.8332    12.0235 H       
@<TRIPOS>BOND
   1    1    2 1
   2    1    8 3
   3    2    3 ar
   4    2    7 ar
   5    3    4 ar
   6    3   35 1
   7    4    5 ar
   8    4   34 1
   9    5    6 ar
  10    5    9 1
  11    6    7 ar
  12    6   36 1
  13    7   37 1
  14    9   10 2
  15    9   11 1
  16   11   12 2
  17   11   13 2
  18   11   14 am
  19   14   15 1
  20   14   19 1
  21   15   16 1
  22   15   38 1
  23   15   39 1
  24   16   17 1
  25   16   33 1
  26   16   40 1
  27   17   18 1
  28   17   21 1
  29   18   19 1
  30   18   41 1
  31   18   42 1
  32   19   43 1
  33   19   44 1
  34   20   21 ar
  35   20   25 ar
  36   20   32 1
  37   21   22 ar
  38   22   23 ar
  39   22   45 1
  40   23   24 ar
  41   23   46 1
  42   24   25 ar
  43   24   26 1
  44   26   27 1
  45   26   31 1
  46   27   28 1
  47   27   47 1
  48   27   48 1
  49   28   29 1
  50   28   49 1
  51   28   50 1
  52   29   30 1
  53   30   31 1
  54   30   51 1
  55   30   52 1
  56   31   53 1
  57   31   54 1
  58   32   55 1
  59   32   56 1
  60   32   57 1
  61   33   58 1
  62   33   59 1
  63   33   60 1
  64   34   61 1
  65   34   62 1
  66   34   63 1
  67   64   65 1

#	End of record

