#	Name: ASD00190091
#	Creating user name:	WinNT
#	Creation time:	15. 06. 2019 18:33

#	Modifying user name:	WinNT
#	Modification time:	15. 06. 2019 18:33

#	Program:	/corina/corina34_cracker 3.40 0067  02.08.2006

@<TRIPOS>MOLECULE
ASD00190091
  35   37    0    0    0
SMALL
NO_CHARGES


@<TRIPOS>ATOM
   1 C1            -0.0169     1.3972     0.0097 C.ar    
   2 C2             0.0021    -0.0041     0.0020 C.ar    
   3 N3             1.1790    -0.6332    -0.0126 N.ar    
   4 C4             2.3092     0.0543    -0.0197 C.ar    
   5 N5             2.3190     1.3799    -0.0122 N.ar    
   6 C6             1.1900     2.0715     0.0018 C.ar    
   7 N7             3.5132    -0.6285    -0.0349 N.pl3   
   8 C8            -1.2555    -0.7695     0.0104 C.2     
   9 C9            -1.2244    -2.1134     0.0029 C.2     
  10 C10           -2.4821    -2.8789     0.0113 C.ar    
  11 C11           -2.4507    -4.2773     0.0034 C.ar    
  12 C12           -3.6272    -4.9912     0.0113 C.ar    
  13 C13           -4.8510    -4.3208     0.0270 C.ar    
  14 C14           -4.8842    -2.9257     0.0348 C.ar    
  15 C15           -3.7096    -2.2086     0.0328 C.ar    
  16 C16           -6.1172    -5.0914     0.0348 C.ar    
  17 C17           -7.3367    -4.4170     0.0505 C.ar    
  18 C18           -8.5107    -5.1504     0.0573 C.ar    
  19 C19           -8.4266    -6.5354     0.0481 C.ar    
  20 C20           -7.1824    -7.1395     0.0326 C.ar    
  21 N21           -6.0804    -6.4181     0.0214 N.ar    
  22 H22           -0.9521     1.9374     0.0171 H       
  23 H23            1.2117     3.1512     0.0074 H       
  24 H24            3.5206    -1.5984    -0.0401 H       
  25 H25            4.3494    -0.1370    -0.0402 H       
  26 H26           -2.2030    -0.2513     0.0226 H       
  27 H27           -0.2769    -2.6316    -0.0093 H       
  28 H28           -1.5038    -4.7965    -0.0091 H       
  29 H29           -3.6034    -6.0709     0.0049 H       
  30 H30           -5.8323    -2.4085     0.0469 H       
  31 H31           -3.7357    -1.1290     0.0388 H       
  32 H32           -7.3654    -3.3374     0.0577 H       
  33 H33           -9.4706    -4.6557     0.0698 H       
  34 H34           -9.3241    -7.1360     0.0534 H       
  35 H35           -7.1136    -8.2172     0.0258 H       
@<TRIPOS>BOND
   1    1    2 ar
   2    1    6 ar
   3    1   22 1
   4    2    3 ar
   5    2    8 1
   6    3    4 ar
   7    4    5 ar
   8    4    7 1
   9    5    6 ar
  10    6   23 1
  11    7   24 1
  12    7   25 1
  13    8    9 2
  14    8   26 1
  15    9   10 1
  16    9   27 1
  17   10   11 ar
  18   10   15 ar
  19   11   12 ar
  20   11   28 1
  21   12   13 ar
  22   12   29 1
  23   13   14 ar
  24   13   16 1
  25   14   15 ar
  26   14   30 1
  27   15   31 1
  28   16   17 ar
  29   16   21 ar
  30   17   18 ar
  31   17   32 1
  32   18   19 ar
  33   18   33 1
  34   19   20 ar
  35   19   34 1
  36   20   21 ar
  37   20   35 1

#	End of record

