#	Name: ASD04882591
#	Creating user name:	WinNT
#	Creation time:	15. 06. 2019 20:55

#	Modifying user name:	WinNT
#	Modification time:	15. 06. 2019 20:55

#	Program:	/corina/corina34_cracker 3.40 0067  02.08.2006

@<TRIPOS>MOLECULE
ASD04882591
  72   75    0    0    0
SMALL
NO_CHARGES


@<TRIPOS>ATOM
   1 C1            -0.0517    -0.5555     1.3085 C.ar    
   2 C2            -0.2641    -1.7498     0.6142 C.ar    
   3 C3            -1.4814    -1.9830    -0.0154 C.ar    
   4 C4            -2.4821    -1.0384     0.0422 C.ar    
   5 C5            -2.2761     0.1582     0.7344 C.ar    
   6 C6            -1.0555     0.3923     1.3739 C.ar    
   7 N7             0.7452    -2.7072     0.5526 N.3     
   8 C8             0.3035    -3.9770     1.1461 C.3     
   9 C9             1.1992    -2.9056    -0.8309 C.3     
  10 C10            2.3594    -3.9036    -0.8461 C.3     
  11 N11            1.9177    -5.1734    -0.2526 N.3     
  12 C12            1.4637    -4.9750     1.1309 C.3     
  13 C13           -3.3480     1.1700     0.7955 C.2     
  14 O14           -3.0739     2.3334     1.0190 O.2     
  15 N15           -4.6311     0.8049     0.6037 N.am    
  16 N16            1.1755    -0.3218     1.9424 N.am    
  17 C17            2.9301    -6.1337    -0.3143 C.ar    
  18 C18            4.1474    -5.9031     0.3134 C.ar    
  19 C19            5.1462    -6.8551     0.2507 C.ar    
  20 C20            4.9354    -8.0364    -0.4363 C.ar    
  21 C21            3.7244    -8.2692    -1.0625 C.ar    
  22 C22            2.7196    -7.3242    -0.9989 C.ar    
  23 C23            1.2461     0.5375     2.9782 C.2     
  24 C24            2.5463     0.8657     3.5713 C.2     
  25 O25            3.7422     0.3808     3.1778 O.3     
  26 C26            4.7076     0.9003     3.9474 C.2     
  27 C27            4.1431     1.7310     4.8514 C.2     
  28 C28            2.7595     1.7203     4.6149 C.2     
  29 O29            0.2305     1.0412     3.4214 O.2     
  30 C30           -5.6853     1.3565     1.4584 C.3     
  31 C31            1.4002    -7.5790    -1.6811 C.3     
  32 C32           -4.9716    -0.1436    -0.4597 C.3     
  33 C33           -5.0320    -1.5586     0.1191 C.3     
  34 C34           -6.3332     0.2231    -1.0534 C.3     
  35 C35           -3.9053    -0.0858    -1.5553 C.3     
  36 C36           -6.2264     2.6444     0.8342 C.3     
  37 H37           -1.6427    -2.9068    -0.5511 H       
  38 H38           -3.4265    -1.2224    -0.4482 H       
  39 H39           -0.8936     1.3161     1.9095 H       
  40 H40           -0.0159    -3.8062     2.1742 H       
  41 H41           -0.5290    -4.3783     0.5682 H       
  42 H42            0.3769    -3.2948    -1.4312 H       
  43 H43            1.5328    -1.9538    -1.2442 H       
  44 H44            2.6788    -4.0744    -1.8742 H       
  45 H45            3.1920    -3.5023    -0.2682 H       
  46 H46            2.2861    -4.5858     1.7312 H       
  47 H47            1.1301    -5.9268     1.5442 H       
  48 H48            1.9745    -0.7785     1.6358 H       
  49 H49            4.3130    -4.9804     0.8495 H       
  50 H50            6.0930    -6.6765     0.7386 H       
  51 H51            5.7183    -8.7788    -0.4843 H       
  52 H52            3.5632    -9.1928    -1.5985 H       
  53 H53            5.7632     0.6897     3.8600 H       
  54 H54            4.6597     2.2994     5.6107 H       
  55 H55            2.0085     2.2750     5.1577 H       
  56 H56           -6.4934     0.6311     1.5526 H       
  57 H57           -5.2762     1.5748     2.4449 H       
  58 H58            0.7236    -8.0792    -0.9883 H       
  59 H59            0.9638    -6.6304    -1.9940 H       
  60 H60            1.5589    -8.2115    -2.5545 H       
  61 H61           -5.7287    -1.5789     0.9572 H       
  62 H62           -5.3697    -2.2520    -0.6510 H       
  63 H63           -4.0406    -1.8528     0.4636 H       
  64 H64           -6.2902     1.2312    -1.4658 H       
  65 H65           -6.5866    -0.4826    -1.8446 H       
  66 H66           -7.0929     0.1820    -0.2728 H       
  67 H67           -3.0389     0.4660    -1.1904 H       
  68 H68           -3.6045    -1.0986    -1.8233 H       
  69 H69           -4.3127     0.4164    -2.4328 H       
  70 H70           -5.4183     3.3698     0.7400 H       
  71 H71           -6.6355     2.4260    -0.1522 H       
  72 H72           -7.0107     3.0547     1.4702 H       
@<TRIPOS>BOND
   1    1    2 ar
   2    1   16 1
   3    1    6 ar
   4    2    3 ar
   5    2    7 1
   6    3    4 ar
   7    3   37 1
   8    4    5 ar
   9    4   38 1
  10    5    6 ar
  11    5   13 1
  12    6   39 1
  13    7    8 1
  14    7    9 1
  15    8   12 1
  16    8   40 1
  17    8   41 1
  18    9   10 1
  19    9   42 1
  20    9   43 1
  21   10   11 1
  22   10   44 1
  23   10   45 1
  24   11   12 1
  25   11   17 1
  26   12   46 1
  27   12   47 1
  28   13   14 2
  29   13   15 am
  30   15   30 1
  31   15   32 1
  32   16   23 am
  33   16   48 1
  34   17   18 ar
  35   17   22 ar
  36   18   19 ar
  37   18   49 1
  38   19   20 ar
  39   19   50 1
  40   20   21 ar
  41   20   51 1
  42   21   22 ar
  43   21   52 1
  44   22   31 1
  45   23   24 1
  46   23   29 2
  47   24   25 1
  48   24   28 2
  49   25   26 1
  50   26   27 2
  51   26   53 1
  52   27   28 1
  53   27   54 1
  54   28   55 1
  55   30   36 1
  56   30   56 1
  57   30   57 1
  58   31   58 1
  59   31   59 1
  60   31   60 1
  61   32   33 1
  62   32   34 1
  63   32   35 1
  64   33   61 1
  65   33   62 1
  66   33   63 1
  67   34   64 1
  68   34   65 1
  69   34   66 1
  70   35   67 1
  71   35   68 1
  72   35   69 1
  73   36   70 1
  74   36   71 1
  75   36   72 1

#	End of record

