#	Name: ASD03331445
#	Creating user name:	WinNT
#	Creation time:	15. 06. 2019 20:39

#	Modifying user name:	WinNT
#	Modification time:	15. 06. 2019 20:39

#	Program:	/corina/corina34_cracker 3.40 0067  02.08.2006

@<TRIPOS>MOLECULE
ASD03331445
  74   78    0    0    0
SMALL
NO_CHARGES


@<TRIPOS>ATOM
   1 N1            -0.5939     1.8498    -1.1401 N.am    
   2 C2            -0.3617     0.4192    -1.3815 C.3     
   3 C3            -0.8104     0.0804    -2.8065 C.3     
   4 C4            -0.0999     1.0080    -3.7949 C.3     
   5 C5            -0.4832     2.4600    -3.5001 C.3     
   6 C6            -0.0309     2.8258    -2.0830 C.3     
   7 C7             1.3915     0.8441    -3.6541 C.2     
   8 O8             2.0928     1.8146    -3.4609 O.2     
   9 N9             1.9461    -0.3811    -3.7429 N.am    
  10 C10           -0.5130     0.6551    -5.2005 C.ar    
  11 C11           -0.0676     1.4185    -6.2636 C.ar    
  12 C12           -0.4455     1.0955    -7.5531 C.ar    
  13 C13           -1.2704     0.0070    -7.7801 C.ar    
  14 C14           -1.7159    -0.7569    -6.7146 C.ar    
  15 C15           -1.3325    -0.4351    -5.4264 C.ar    
  16 F16           -1.6408    -0.3094    -9.0402 F       
  17 C17           -1.3145     2.2587    -0.0771 C.2     
  18 O18           -1.8597     1.4406     0.6391 O.2     
  19 N19           -2.2965     5.6676     0.7389 N.pl3   
  20 C20           -2.6011     4.3667     0.5445 C.2     
  21 C21           -1.4419     3.6963     0.2173 C.2     
  22 C22           -0.3944     4.6539     0.2184 C.2     
  23 C23           -0.9480     5.8508     0.5411 C.2     
  24 C24           -3.2106     6.6730     1.0819 C.ar    
  25 C25           -3.1556     7.2640     2.3371 C.ar    
  26 C26           -4.0573     8.2549     2.6726 C.ar    
  27 C27           -5.0153     8.6584     1.7591 C.ar    
  28 C28           -5.0722     8.0708     0.5075 C.ar    
  29 C29           -4.1691     7.0835     0.1652 C.ar    
  30 Cl30          -6.1481     9.9033     2.1843 Cl      
  31 C31           -0.2235     7.1346     0.6594 C.ar    
  32 C32            0.9394     7.2155     1.4288 C.ar    
  33 C33            1.6106     8.4173     1.5348 C.ar    
  34 C34            1.1333     9.5393     0.8809 C.ar    
  35 C35           -0.0182     9.4654     0.1178 C.ar    
  36 C36           -0.6953     8.2689    -0.0017 C.ar    
  37 Cl37           1.5389     5.8085     2.2503 Cl      
  38 C38           -3.9724     3.7532     0.6645 C.3     
  39 C39           -4.6774     3.8109    -0.6922 C.3     
  40 C40           -6.0696     3.1880    -0.5704 C.3     
  41 C41           -6.7640     3.2448    -1.9066 C.2     
  42 O42           -6.2008     3.7351    -2.8623 O.2     
  43 N43           -8.0108     2.7507    -2.0397 N.am    
  44 H44            0.6997     0.1974    -1.2701 H       
  45 H45           -0.9371    -0.1700    -0.6674 H       
  46 H46           -0.5553    -0.9551    -3.0317 H       
  47 H47           -1.8886     0.2165    -2.8905 H       
  48 H48            0.0047     3.1182    -4.2190 H       
  49 H49           -1.5645     2.5737    -3.5776 H       
  50 H50           -0.3880     3.8245    -1.8318 H       
  51 H51            1.0575     2.8003    -2.0288 H       
  52 H52            1.3956    -1.1476    -3.9672 H       
  53 H53            2.8958    -0.4964    -3.5824 H       
  54 H54            0.5756     2.2678    -6.0862 H       
  55 H55           -0.0977     1.6922    -8.3834 H       
  56 H56           -2.3594    -1.6062    -6.8905 H       
  57 H57           -1.6765    -1.0332    -4.5955 H       
  58 H58            0.6471     4.4657     0.0034 H       
  59 H59           -2.4086     6.9490     3.0505 H       
  60 H60           -4.0149     8.7149     3.6488 H       
  61 H61           -5.8211     8.3872    -0.2036 H       
  62 H62           -4.2113     6.6281    -0.8132 H       
  63 H63            2.5097     8.4819     2.1296 H       
  64 H64            1.6619    10.4771     0.9669 H       
  65 H65           -0.3854    10.3451    -0.3898 H       
  66 H66           -1.5915     8.2119    -0.6017 H       
  67 H67           -3.8792     2.7146     0.9817 H       
  68 H68           -4.5550     4.3071     1.4005 H       
  69 H69           -4.7705     4.8495    -1.0095 H       
  70 H70           -4.0947     3.2570    -1.4283 H       
  71 H71           -5.9764     2.1494    -0.2531 H       
  72 H72           -6.6522     3.7419     0.1657 H       
  73 H73           -8.4612     2.3585    -1.2753 H       
  74 H74           -8.4578     2.7872    -2.8998 H       
@<TRIPOS>BOND
   1    1    2 1
   2    1    6 1
   3    1   17 am
   4    2    3 1
   5    2   44 1
   6    2   45 1
   7    3    4 1
   8    3   46 1
   9    3   47 1
  10    4    5 1
  11    4    7 1
  12    4   10 1
  13    5    6 1
  14    5   48 1
  15    5   49 1
  16    6   50 1
  17    6   51 1
  18    7    8 2
  19    7    9 am
  20    9   52 1
  21    9   53 1
  22   10   11 ar
  23   10   15 ar
  24   11   12 ar
  25   11   54 1
  26   12   13 ar
  27   12   55 1
  28   13   14 ar
  29   13   16 1
  30   14   15 ar
  31   14   56 1
  32   15   57 1
  33   17   18 2
  34   17   21 1
  35   19   20 1
  36   19   23 1
  37   19   24 1
  38   20   21 2
  39   20   38 1
  40   21   22 1
  41   22   23 2
  42   22   58 1
  43   23   31 1
  44   24   25 ar
  45   24   29 ar
  46   25   26 ar
  47   25   59 1
  48   26   27 ar
  49   26   60 1
  50   27   28 ar
  51   27   30 1
  52   28   29 ar
  53   28   61 1
  54   29   62 1
  55   31   32 ar
  56   31   36 ar
  57   32   33 ar
  58   32   37 1
  59   33   34 ar
  60   33   63 1
  61   34   35 ar
  62   34   64 1
  63   35   36 ar
  64   35   65 1
  65   36   66 1
  66   38   39 1
  67   38   67 1
  68   38   68 1
  69   39   40 1
  70   39   69 1
  71   39   70 1
  72   40   41 1
  73   40   71 1
  74   40   72 1
  75   41   42 2
  76   41   43 am
  77   43   73 1
  78   43   74 1

#	End of record

