#	Name: ASD01140415
#	Creating user name:	WinNT
#	Creation time:	15. 06. 2019 19:00

#	Modifying user name:	WinNT
#	Modification time:	15. 06. 2019 19:00

#	Program:	/corina/corina34_cracker 3.40 0067  02.08.2006

@<TRIPOS>MOLECULE
ASD01140415
  50   52    0    0    0
SMALL
NO_CHARGES


@<TRIPOS>ATOM
   1 C1            -0.0901     1.6854     0.0324 C.2     
   2 C2             0.0479     0.2976    -0.1419 C.2     
   3 C3            -1.0607    -0.4884    -0.1947 C.2     
   4 C4            -2.3346     0.1038    -0.0733 C.2     
   5 N5            -2.4381     1.4605     0.0959 N.pl3   
   6 C6            -1.3165     2.2378     0.1528 C.2     
   7 N7            -3.5568    -0.4079    -0.0879 N.2     
   8 C8            -4.4495     0.5823     0.0675 C.2     
   9 C9            -3.7694     1.7570     0.1839 C.2     
  10 C10           -5.9247     0.4247     0.1051 C.ar    
  11 C11           -6.7419     1.3315    -0.5667 C.ar    
  12 C12           -8.1131     1.1807    -0.5287 C.ar    
  13 C13           -8.6770     0.1309     0.1758 C.ar    
  14 C14           -7.8693    -0.7727     0.8449 C.ar    
  15 C15           -6.4968    -0.6340     0.8077 C.ar    
  16 Cl16         -10.4027    -0.0529     0.2209 Cl      
  17 C17           -4.3714     3.1254     0.3740 C.3     
  18 C18           -4.5006     3.8076    -0.9635 C.2     
  19 N19           -5.0175     5.0499    -1.0392 N.am    
  20 O20           -4.1393     3.2386    -1.9718 O.2     
  21 C21           -5.4539     5.7372     0.1788 C.3     
  22 C22           -4.2854     6.5355     0.7605 C.3     
  23 C23           -6.5072     5.3850    -2.9497 C.3     
  24 C24           -5.1431     5.7131    -2.3394 C.3     
  25 C25           -6.6383     6.0776    -4.3076 C.3     
  26 C26           -4.7411     7.2532     2.0325 C.3     
  27 Cl27           1.3221     2.6927     0.1004 Cl      
  28 H28            1.0298    -0.1426    -0.2339 H       
  29 H29           -0.9663    -1.5559    -0.3287 H       
  30 H30           -1.4116     3.3053     0.2864 H       
  31 H31           -6.3030     2.1513    -1.1160 H       
  32 H32           -8.7474     1.8831    -1.0491 H       
  33 H33           -8.3138    -1.5901     1.3931 H       
  34 H34           -5.8675    -1.3396     1.3296 H       
  35 H35           -5.3571     3.0286     0.8292 H       
  36 H36           -3.7278     3.7184     1.0237 H       
  37 H37           -6.2736     6.4148    -0.0601 H       
  38 H38           -5.7913     5.0022     0.9096 H       
  39 H39           -3.4657     5.8579     0.9994 H       
  40 H40           -3.9480     7.2704     0.0296 H       
  41 H41           -6.5962     4.3067    -3.0817 H       
  42 H42           -7.2965     5.7361    -2.2850 H       
  43 H43           -5.0540     6.7914    -2.2074 H       
  44 H44           -4.3537     5.3620    -3.0041 H       
  45 H45           -7.6101     5.8438    -4.7424 H       
  46 H46           -6.5492     7.1559    -4.1756 H       
  47 H47           -5.8490     5.7265    -4.9723 H       
  48 H48           -5.5608     7.9308     1.7935 H       
  49 H49           -5.0786     6.5183     2.7633 H       
  50 H50           -3.9087     7.8219     2.4469 H       
@<TRIPOS>BOND
   1    1    2 1
   2    1   27 1
   3    1    6 2
   4    2    3 2
   5    2   28 1
   6    3    4 1
   7    3   29 1
   8    4    5 1
   9    4    7 2
  10    5    6 1
  11    5    9 1
  12    6   30 1
  13    7    8 1
  14    8    9 2
  15    8   10 1
  16    9   17 1
  17   10   11 ar
  18   10   15 ar
  19   11   12 ar
  20   11   31 1
  21   12   13 ar
  22   12   32 1
  23   13   14 ar
  24   13   16 1
  25   14   15 ar
  26   14   33 1
  27   15   34 1
  28   17   18 1
  29   17   35 1
  30   17   36 1
  31   18   19 am
  32   18   20 2
  33   19   21 1
  34   19   24 1
  35   21   22 1
  36   21   37 1
  37   21   38 1
  38   22   26 1
  39   22   39 1
  40   22   40 1
  41   23   24 1
  42   23   25 1
  43   23   41 1
  44   23   42 1
  45   24   43 1
  46   24   44 1
  47   25   45 1
  48   25   46 1
  49   25   47 1
  50   26   48 1
  51   26   49 1
  52   26   50 1

#	End of record

