#	Name: ASD02810012
#	Creating user name:	WinNT
#	Creation time:	15. 06. 2019 20:26

#	Modifying user name:	WinNT
#	Modification time:	15. 06. 2019 20:26

#	Program:	/corina/corina34_cracker 3.40 0067  02.08.2006

@<TRIPOS>MOLECULE
ASD02810012
 134  134    0    0    0
SMALL
NO_CHARGES


@<TRIPOS>ATOM
   1 C1             0.8951    -0.9163    -0.7752 C.3     
   2 C2           -23.8104    -3.9819   -16.3545 C.3     
   3 C3            -2.1353     0.0565     1.1354 C.3     
   4 C4            -1.3844    -0.4817    -0.0842 C.3     
   5 C5            -2.0621    -0.0038    -1.3425 C.2     
   6 N6             0.0016     0.0043    -0.0596 N.3     
   7 O7            -1.6797     1.0084    -1.8903 O.2     
   8 S8            -1.3195    -0.5187     2.6501 S.3     
   9 C9            -2.9843    -0.7508    -4.3019 C.3     
  10 C10           -3.7520    -0.2367    -3.0824 C.3     
  11 C11           -5.1650    -0.7592    -3.1214 C.2     
  12 N12           -3.0932    -0.7013    -1.8591 N.am    
  13 O13           -5.5808    -1.4515    -2.2165 O.2     
  14 C14           -1.5899    -0.1216    -4.3291 C.3     
  15 C15           -0.8337    -0.6280    -5.5303 C.2     
  16 O16           -1.3584    -1.4146    -6.2898 O.2     
  17 N17            0.4256    -0.2066    -5.7606 N.am    
  18 C18           -8.2539    -0.0241    -3.4120 C.3     
  19 C19           -7.3403    -0.9651    -4.1998 C.3     
  20 C20           -7.8090    -1.0395    -5.6302 C.2     
  21 N21           -5.9667    -0.4572    -4.1619 N.am    
  22 O22           -7.0686    -0.7016    -6.5293 O.2     
  23 C23           -7.8555    -0.0446    -1.9350 C.3     
  24 C24           -8.6851     0.9875    -1.1686 C.3     
  25 C25           -8.1133    -1.4374    -1.3565 C.3     
  26 C26           -9.0545    -2.8792    -7.9172 C.3     
  27 C27           -9.5067    -1.5540    -7.3006 C.3     
  28 C28          -11.0107    -1.4682    -7.3415 C.2     
  29 N29           -9.0510    -1.4817    -5.9102 N.am    
  30 O30          -11.6400    -1.3576    -6.3106 O.2     
  31 C31           -7.5495    -2.9125    -7.9886 C.ar    
  32 C32           -6.8194    -3.4213    -6.9304 C.ar    
  33 C33           -5.4398    -3.4528    -6.9934 C.ar    
  34 C34           -4.7869    -2.9734    -8.1197 C.ar    
  35 C35           -5.5217    -2.4634    -9.1801 C.ar    
  36 C36           -6.9014    -2.4392    -9.1145 C.ar    
  37 O37           -3.4297    -3.0030    -8.1839 O.3     
  38 C38          -13.5460     0.0379    -8.5538 C.3     
  39 C39          -13.1185    -1.4311    -8.5633 C.3     
  40 C40          -13.6255    -2.0938    -9.8182 C.2     
  41 N41          -11.6564    -1.5145    -8.5236 N.am    
  42 O42          -12.8427    -2.5871   -10.6022 O.2     
  43 C43          -13.1400     0.6787    -7.2251 C.3     
  44 C44          -13.5611     2.1256    -7.2158 C.2     
  45 O45          -14.1299     2.5978    -8.1773 O.2     
  46 N46          -13.3055     2.8949    -6.1391 N.am    
  47 C47          -15.5857    -4.2866   -11.0493 C.3     
  48 C48          -15.4418    -2.7824   -11.2893 C.3     
  49 C49          -16.7830    -2.2019   -11.6572 C.2     
  50 N50          -14.9490    -2.1382   -10.0693 N.am    
  51 O51          -17.2783    -1.3353   -10.9682 O.2     
  52 N52          -13.0278    -6.9863   -10.3181 N.pl3   
  53 C53          -12.9062    -8.3342   -10.0764 C.2     
  54 N54          -11.7304    -8.8545    -9.8626 N.2     
  55 N55          -14.0248    -9.1334   -10.0601 N.pl3   
  56 C56          -14.2055    -4.8973   -10.7984 C.3     
  57 C57          -14.3494    -6.4015   -10.5584 C.3     
  58 C58          -18.5318    -0.8047   -13.9278 C.3     
  59 C59          -18.7358    -2.0813   -13.1095 C.3     
  60 C60          -19.5098    -3.0834   -13.9266 C.2     
  61 N61          -17.4320    -2.6456   -12.7519 N.am    
  62 O62          -19.0206    -4.1627   -14.1847 O.2     
  63 O63          -17.9070    -1.1306   -15.1710 O.3     
  64 C64          -21.4983    -3.7544   -15.1648 C.3     
  65 C65          -22.8394    -3.1739   -15.5327 C.2     
  66 N66          -20.7458    -2.7802   -14.3705 N.am    
  67 O67          -23.1361    -2.0612   -15.1689 O.2     
  68 H68            1.8979    -0.4912    -0.8159 H       
  69 H69            0.9266    -1.8721    -0.2521 H       
  70 H70            0.5237    -1.0689    -1.7886 H       
  71 H71          -24.4491    -4.5659   -15.6919 H       
  72 H72          -24.4257    -3.3107   -16.9537 H       
  73 H73          -23.2587    -4.6534   -17.0123 H       
  74 H74           -2.1320     1.1463     1.1124 H       
  75 H75           -3.1637    -0.3041     1.1172 H       
  76 H76           -1.3878    -1.5715    -0.0611 H       
  77 H77            0.3167     0.1508     0.8877 H       
  78 H78           -2.0740     0.0213     3.6239 H       
  79 H79           -2.8924    -1.8353    -4.2427 H       
  80 H80           -3.5226    -0.4808    -5.2104 H       
  81 H81           -3.7672     0.8531    -3.0955 H       
  82 H82           -3.3991    -1.5108    -1.4210 H       
  83 H83           -1.6818     0.9629    -4.3883 H       
  84 H84           -1.0517    -0.3916    -3.4206 H       
  85 H85            0.8452     0.4225    -5.1531 H       
  86 H86            0.9123    -0.5326    -6.5337 H       
  87 H87           -8.1543     0.9891    -3.8012 H       
  88 H88           -9.2883    -0.3524    -3.5139 H       
  89 H89           -7.3723    -1.9596    -3.7548 H       
  90 H90           -5.6341     0.0965    -4.8856 H       
  91 H91           -6.7969     0.1977    -1.8408 H       
  92 H92           -9.7436     0.7452    -1.2627 H       
  93 H93           -8.4012     0.9729    -0.1163 H       
  94 H94           -8.5014     1.9797    -1.5807 H       
  95 H95           -9.1718    -1.6797    -1.4506 H       
  96 H96           -7.5223    -2.1727    -1.9025 H       
  97 H97           -7.8294    -1.4520    -0.3042 H       
  98 H98           -9.4073    -3.7060    -7.3006 H       
  99 H99           -9.4680    -2.9726    -8.9214 H       
 100 H100          -9.0800    -0.7257    -7.8663 H       
 101 H101          -9.6432    -1.7520    -5.1910 H       
 102 H102          -7.3282    -3.7941    -6.0537 H       
 103 H103          -4.8700    -3.8501    -6.1664 H       
 104 H104          -5.0157    -2.0896   -10.0580 H       
 105 H105          -7.4741    -2.0463    -9.9416 H       
 106 H106          -3.0716    -3.8163    -8.5651 H       
 107 H107         -13.0582     0.5635    -9.3747 H       
 108 H108         -14.6276     0.1023    -8.6728 H       
 109 H109         -13.5350    -1.9364    -7.6919 H       
 110 H110         -11.1531    -1.6030    -9.3480 H       
 111 H111         -13.6278     0.1530    -6.4042 H       
 112 H112         -12.0584     0.6143    -7.1062 H       
 113 H113         -12.8506     2.5172    -5.3701 H       
 114 H114         -13.5766     3.8263    -6.1331 H       
 115 H115         -16.2217    -4.4567   -10.1806 H       
 116 H116         -16.0355    -4.7530   -11.9258 H       
 117 H117         -14.7360    -2.6100   -12.1018 H       
 118 H118         -15.5751    -1.7436    -9.4423 H       
 119 H119         -12.2386    -6.4225   -10.3296 H       
 120 H120         -11.6446    -9.8055    -9.6920 H       
 121 H121         -14.8998    -8.7462   -10.2191 H       
 122 H122         -13.9390   -10.0844    -9.8895 H       
 123 H123         -13.5695    -4.7272   -11.6671 H       
 124 H124         -13.7557    -4.4309    -9.9219 H       
 125 H125         -14.7992    -6.8679   -11.4349 H       
 126 H126         -14.9854    -6.5717    -9.6897 H       
 127 H127         -19.4977    -0.3369   -14.1183 H       
 128 H128         -17.8971    -0.1144   -13.3721 H       
 129 H129         -19.2912    -1.8460   -12.2017 H       
 130 H130         -17.0358    -3.3387   -13.3029 H       
 131 H131         -17.7466    -0.3672   -15.7426 H       
 132 H132         -21.6436    -4.6638   -14.5818 H       
 133 H133         -20.9428    -3.9896   -16.0726 H       
 134 H134         -21.1370    -1.9170   -14.1640 H       
@<TRIPOS>BOND
   1    1    6 1
   2    1   68 1
   3    1   69 1
   4    1   70 1
   5    2   65 1
   6    2   71 1
   7    2   72 1
   8    2   73 1
   9    3    8 1
  10    3    4 1
  11    3   74 1
  12    3   75 1
  13    4    5 1
  14    4    6 1
  15    4   76 1
  16    5    7 2
  17    5   12 am
  18    6   77 1
  19    8   78 1
  20    9   14 1
  21    9   10 1
  22    9   79 1
  23    9   80 1
  24   10   12 1
  25   10   11 1
  26   10   81 1
  27   11   13 2
  28   11   21 am
  29   12   82 1
  30   14   15 1
  31   14   83 1
  32   14   84 1
  33   15   16 2
  34   15   17 am
  35   17   85 1
  36   17   86 1
  37   18   23 1
  38   18   19 1
  39   18   87 1
  40   18   88 1
  41   19   21 1
  42   19   20 1
  43   19   89 1
  44   20   22 2
  45   20   29 am
  46   21   90 1
  47   23   24 1
  48   23   25 1
  49   23   91 1
  50   24   92 1
  51   24   93 1
  52   24   94 1
  53   25   95 1
  54   25   96 1
  55   25   97 1
  56   26   31 1
  57   26   27 1
  58   26   98 1
  59   26   99 1
  60   27   28 1
  61   27   29 1
  62   27  100 1
  63   28   30 2
  64   28   41 am
  65   29  101 1
  66   31   32 ar
  67   31   36 ar
  68   32   33 ar
  69   32  102 1
  70   33   34 ar
  71   33  103 1
  72   34   35 ar
  73   34   37 1
  74   35   36 ar
  75   35  104 1
  76   36  105 1
  77   37  106 1
  78   38   43 1
  79   38   39 1
  80   38  107 1
  81   38  108 1
  82   39   41 1
  83   39   40 1
  84   39  109 1
  85   40   42 2
  86   40   50 am
  87   41  110 1
  88   43   44 1
  89   43  111 1
  90   43  112 1
  91   44   45 2
  92   44   46 am
  93   46  113 1
  94   46  114 1
  95   47   56 1
  96   47   48 1
  97   47  115 1
  98   47  116 1
  99   48   50 1
 100   48   49 1
 101   48  117 1
 102   49   51 2
 103   49   61 am
 104   50  118 1
 105   52   57 1
 106   52   53 1
 107   52  119 1
 108   53   54 2
 109   53   55 1
 110   54  120 1
 111   55  121 1
 112   55  122 1
 113   56   57 1
 114   56  123 1
 115   56  124 1
 116   57  125 1
 117   57  126 1
 118   58   63 1
 119   58   59 1
 120   58  127 1
 121   58  128 1
 122   59   61 1
 123   59   60 1
 124   59  129 1
 125   60   62 2
 126   60   66 am
 127   61  130 1
 128   63  131 1
 129   64   65 1
 130   64   66 1
 131   64  132 1
 132   64  133 1
 133   65   67 2
 134   66  134 1

#	End of record

