#	Name: ASD02440037
#	Creating user name:	WinNT
#	Creation time:	15. 06. 2019 20:21

#	Modifying user name:	WinNT
#	Modification time:	15. 06. 2019 20:21

#	Program:	/corina/corina34_cracker 3.40 0067  02.08.2006

@<TRIPOS>MOLECULE
ASD02440037
  87   92    0    0    0
SMALL
NO_CHARGES


@<TRIPOS>ATOM
   1 C1             0.3485     3.3032     0.4335 C.3     
   2 C2            -0.3928     2.2421     1.2448 C.3     
   3 C3            -0.6294     1.0000     0.4062 C.3     
   4 C4             0.6258     0.4413    -0.2617 C.3     
   5 C5             1.4585     1.5379    -0.8961 C.3     
   6 C6             1.7187     2.7454    -0.0016 C.3     
   7 C7             2.4282     3.8264    -0.8219 C.3     
   8 C8             2.7668     1.0108    -1.4770 C.3     
   9 C9             3.3666     2.0997    -2.3794 C.3     
  10 C10            3.6737     3.3474    -1.5508 C.3     
  11 C11            3.2496     6.1877    -0.8833 C.3     
  12 C12            2.7253     5.0636     0.0221 C.3     
  13 C13            4.1893     4.4732    -2.4661 C.3     
  14 C14            4.4992     5.6997    -1.6092 C.3     
  15 C15            5.0394     6.7567    -2.5462 C.2     
  16 C16            5.4420     4.0413    -3.2319 C.3     
  17 C17            5.9540     5.1421    -4.1590 C.3     
  18 C18            6.2531     6.4222    -3.3772 C.3     
  19 C19            4.9584     9.0152    -3.5302 C.3     
  20 C20            4.4692     7.9244    -2.6189 C.2     
  21 C21            6.7587     7.5184    -4.3179 C.3     
  22 C22            5.6236     8.4307    -4.7733 C.3     
  23 O23           -1.2444    -0.0325     1.2053 O.3     
  24 C24           -2.5789     0.4136     1.4424 C.3     
  25 C25           -2.8924     1.2507     0.2133 C.3     
  26 O26           -1.6849     1.1920    -0.5474 O.3     
  27 C27            1.4055    -0.4255     0.7205 C.3     
  28 C28            2.4995     2.4090     1.2608 C.3     
  29 C29            4.8132     3.0009    -0.5788 C.3     
  30 C30            7.4030     6.1204    -2.4133 C.3     
  31 C31            3.7559     9.8639    -3.9664 C.3     
  32 C32            0.1276    -0.4924    -1.3935 C.3     
  33 C33            3.1148     4.8342    -3.4933 C.3     
  34 C34            5.9404     9.9108    -2.7746 C.3     
  35 O35            8.5779     5.7971    -3.1599 O.3     
  36 H36           -0.2264     3.5603    -0.4544 H       
  37 H37            0.5026     4.1894     1.0450 H       
  38 H38            0.1407     1.9929     2.1569 H       
  39 H39           -1.3678     2.6581     1.5425 H       
  40 H40            0.8677     1.9223    -1.7652 H       
  41 H41            1.6796     4.1376    -1.5822 H       
  42 H42            3.4679     0.7409    -0.6974 H       
  43 H43            2.5761     0.1308    -2.0986 H       
  44 H44            4.2890     1.7191    -2.8210 H       
  45 H45            2.6514     2.3236    -3.1676 H       
  46 H46            2.4764     6.4923    -1.5803 H       
  47 H47            3.5123     7.0452    -0.2529 H       
  48 H48            1.8022     5.4094     0.4953 H       
  49 H49            3.4629     4.8555     0.7894 H       
  50 H50            5.2723     5.4697    -0.8671 H       
  51 H51            6.2331     3.7448    -2.5500 H       
  52 H52            5.1836     3.1689    -3.8479 H       
  53 H53            6.8841     4.7962    -4.6311 H       
  54 H54            5.2369     5.3476    -4.9503 H       
  55 H55            3.6067     8.1300    -1.9993 H       
  56 H56            7.5390     8.0907    -3.8229 H       
  57 H57            7.1995     7.0385    -5.1999 H       
  58 H58            4.8943     7.8598    -5.3530 H       
  59 H59            6.0219     9.2383    -5.3937 H       
  60 H60           -3.2600    -0.4336     1.5164 H       
  61 H61           -2.6238     1.0231     2.3450 H       
  62 H62           -3.7180     0.8101    -0.3470 H       
  63 H63           -3.1216     2.2778     0.4924 H       
  64 H64            0.8205    -1.3117     0.9668 H       
  65 H65            2.3499    -0.7278     0.2680 H       
  66 H66            1.6035     0.1432     1.6291 H       
  67 H67            1.8754     1.8119     1.9257 H       
  68 H68            3.3928     1.8435     0.9957 H       
  69 H69            2.7894     3.3308     1.7652 H       
  70 H70            4.5584     2.0953    -0.0284 H       
  71 H71            5.7330     2.8380    -1.1406 H       
  72 H72            4.9561     3.8237     0.1216 H       
  73 H73            7.5962     6.9955    -1.7929 H       
  74 H74            7.1327     5.2770    -1.7780 H       
  75 H75            3.2808    10.2996    -3.0875 H       
  76 H76            4.0946    10.6605    -4.6288 H       
  77 H77            3.0386     9.2342    -4.4926 H       
  78 H78           -0.4723     0.0812    -2.1001 H       
  79 H79            0.9839    -0.9248    -1.9111 H       
  80 H80           -0.4792    -1.2904    -0.9656 H       
  81 H81            2.2164     5.1715    -2.9763 H       
  82 H82            3.4829     5.6312    -4.1394 H       
  83 H83            2.8793     3.9572    -4.0963 H       
  84 H84            6.7875     9.3153    -2.4344 H       
  85 H85            6.2943    10.7013    -3.4365 H       
  86 H86            5.4393    10.3546    -1.9143 H       
  87 H87            9.3485     5.5941    -2.6121 H       
@<TRIPOS>BOND
   1    1    2 1
   2    1    6 1
   3    1   36 1
   4    1   37 1
   5    2    3 1
   6    2   38 1
   7    2   39 1
   8    3    4 1
   9    3   23 1
  10    3   26 1
  11    4    5 1
  12    4   27 1
  13    4   32 1
  14    5    8 1
  15    5    6 1
  16    5   40 1
  17    6   28 1
  18    6    7 1
  19    7   10 1
  20    7   12 1
  21    7   41 1
  22    8    9 1
  23    8   42 1
  24    8   43 1
  25    9   10 1
  26    9   44 1
  27    9   45 1
  28   10   13 1
  29   10   29 1
  30   11   12 1
  31   11   14 1
  32   11   46 1
  33   11   47 1
  34   12   48 1
  35   12   49 1
  36   13   16 1
  37   13   33 1
  38   13   14 1
  39   14   15 1
  40   14   50 1
  41   15   18 1
  42   15   20 2
  43   16   17 1
  44   16   51 1
  45   16   52 1
  46   17   18 1
  47   17   53 1
  48   17   54 1
  49   18   21 1
  50   18   30 1
  51   19   20 1
  52   19   22 1
  53   19   31 1
  54   19   34 1
  55   20   55 1
  56   21   22 1
  57   21   56 1
  58   21   57 1
  59   22   58 1
  60   22   59 1
  61   23   24 1
  62   24   25 1
  63   24   60 1
  64   24   61 1
  65   25   26 1
  66   25   62 1
  67   25   63 1
  68   27   64 1
  69   27   65 1
  70   27   66 1
  71   28   67 1
  72   28   68 1
  73   28   69 1
  74   29   70 1
  75   29   71 1
  76   29   72 1
  77   30   35 1
  78   30   73 1
  79   30   74 1
  80   31   75 1
  81   31   76 1
  82   31   77 1
  83   32   78 1
  84   32   79 1
  85   32   80 1
  86   33   81 1
  87   33   82 1
  88   33   83 1
  89   34   84 1
  90   34   85 1
  91   34   86 1
  92   35   87 1

#	End of record

