#	Name: ASD03080062
#	Creating user name:	WinNT
#	Creation time:	15. 06. 2019 20:26

#	Modifying user name:	WinNT
#	Modification time:	15. 06. 2019 20:26

#	Program:	/corina/corina34_cracker 3.40 0067  02.08.2006

@<TRIPOS>MOLECULE
ASD03080062
  26   28    0    0    0
SMALL
NO_CHARGES


@<TRIPOS>ATOM
   1 C1            -0.0170     1.4012     0.0097 C.2     
   2 C2             0.0021    -0.0041     0.0020 C.2     
   3 C3             1.2229    -0.6599    -0.0132 C.2     
   4 C4             2.4098     0.1072    -0.0205 C.2     
   5 C5             2.3376     1.4565    -0.0125 C.2     
   6 N6             1.1377     2.0925     0.0024 N.am    
   7 O7            -1.0828     1.9959     0.0180 O.2     
   8 O8             0.2381    -2.9810    -0.0157 O.3     
   9 N9             0.6320    -4.1280    -0.0259 N.2     
  10 C10            1.9401    -4.1585    -0.0388 C.2     
  11 N11            2.3726    -2.8807    -0.0359 N.2     
  12 C12            1.2827    -2.1391    -0.0212 C.2     
  13 C13            4.1800    -5.2667    -0.0656 C.ar    
  14 C14            2.7912    -5.3748    -0.0531 C.ar    
  15 C15            2.2122    -6.6462    -0.0537 C.ar    
  16 C16            3.0494    -7.7490    -0.0668 C.ar    
  17 C17            4.4188    -7.5584    -0.0787 C.ar    
  18 N18            4.9364    -6.3450    -0.0778 N.ar    
  19 H19           -0.9210    -0.5647     0.0082 H       
  20 H20            3.3717    -0.3836    -0.0320 H       
  21 H21            3.2478     2.0378    -0.0178 H       
  22 H22            1.1125     3.0622     0.0076 H       
  23 H23            4.6407    -4.2899    -0.0697 H       
  24 H24            1.1389    -6.7659    -0.0439 H       
  25 H25            2.6372    -8.7473    -0.0674 H       
  26 H26            5.0749    -8.4162    -0.0890 H       
@<TRIPOS>BOND
   1    1    2 1
   2    1    6 am
   3    1    7 2
   4    2    3 2
   5    2   19 1
   6    3    4 1
   7    3   12 1
   8    4    5 2
   9    4   20 1
  10    5    6 1
  11    5   21 1
  12    6   22 1
  13    8    9 1
  14    8   12 1
  15    9   10 2
  16   10   11 1
  17   10   14 1
  18   11   12 2
  19   13   14 ar
  20   13   18 ar
  21   13   23 1
  22   14   15 ar
  23   15   16 ar
  24   15   24 1
  25   16   17 ar
  26   16   25 1
  27   17   18 ar
  28   17   26 1

#	End of record

