#	Name: ASD01840546
#	Creating user name:	WinNT
#	Creation time:	15. 06. 2019 19:37

#	Modifying user name:	WinNT
#	Modification time:	15. 06. 2019 19:37

#	Program:	/corina/corina34_cracker 3.40 0067  02.08.2006

@<TRIPOS>MOLECULE
ASD01840546
  46   49    0    0    0
SMALL
NO_CHARGES


@<TRIPOS>ATOM
   1 C1            -0.0184     1.5028     0.0103 C.3     
   2 C2             0.0021    -0.0041     0.0020 C.ar    
   3 N3             0.0054    -0.6491    -1.1490 N.ar    
   4 C4             0.0236    -1.9723    -1.2051 C.ar    
   5 N5             0.0269    -2.6106    -2.4399 N.pl3   
   6 C6             0.0398    -2.7280    -0.0369 C.ar    
   7 C7             0.0617    -4.2146     0.2030 C.3     
   8 N8             0.0718    -4.4319     1.6539 N.am    
   9 C9             0.0564    -3.1061     2.2824 C.3     
  10 C10            0.0367    -2.0798     1.1818 C.ar    
  11 C11            0.0228    -0.6924     1.1994 C.ar    
  12 C12            0.0245     0.0541     2.5085 C.3     
  13 C13            0.0910    -5.6211     2.2879 C.2     
  14 O14            0.0971    -5.6621     3.5000 O.2     
  15 C15            0.1050    -6.8998     1.4906 C.3     
  16 C16            0.1258    -8.0956     2.4449 C.3     
  17 H17            0.6109    -7.9221     3.4055 H       
  18 C18           -1.0786    -9.0389     2.4218 C.3     
  19 C19            0.2584    -9.4894     1.8281 C.3     
  20 H20            0.3309    -9.5546     0.7424 H       
  21 C21            1.0492   -10.5175     2.5954 C.ar    
  22 C22            2.1789   -11.0953     2.0350 C.ar    
  23 C23            2.8760   -12.0357     2.7761 C.ar    
  24 C24            2.4245   -12.3653     4.0435 C.ar    
  25 F25            3.0966   -13.2807     4.7753 F       
  26 N26            1.3442   -11.7940     4.5442 N.ar    
  27 C27            0.6608   -10.8914     3.8673 C.ar    
  28 H28            1.0042     1.8801     0.0026 H       
  29 H29           -0.5455     1.8639    -0.8728 H       
  30 H30           -0.5286     1.8543     0.9071 H       
  31 H31            0.0160    -2.0872    -3.2565 H       
  32 H32            0.0402    -3.5795    -2.4850 H       
  33 H33           -0.8263    -4.6723    -0.2329 H       
  34 H34            0.9578    -4.6474    -0.2417 H       
  35 H35           -0.8344    -3.0009     2.9017 H       
  36 H36            0.9499    -2.9761     2.8930 H       
  37 H37           -1.0026     0.2198     2.8337 H       
  38 H38            0.5536    -0.5318     3.2602 H       
  39 H39            0.5238     1.0143     2.3786 H       
  40 H40           -0.7872    -6.9486     0.8664 H       
  41 H41            0.9925    -6.9241     0.8583 H       
  42 H42           -1.3857    -9.4862     3.3672 H       
  43 H43           -1.8858    -8.8076     1.7268 H       
  44 H44            2.5073   -10.8188     1.0440 H       
  45 H45            3.7597   -12.5059     2.3708 H       
  46 H46           -0.2155   -10.4424     4.3111 H       
@<TRIPOS>BOND
   1    1    2 1
   2    1   28 1
   3    1   29 1
   4    1   30 1
   5    2   11 ar
   6    2    3 ar
   7    3    4 ar
   8    4    5 1
   9    4    6 ar
  10    5   31 1
  11    5   32 1
  12    6   10 ar
  13    6    7 1
  14    7    8 1
  15    7   33 1
  16    7   34 1
  17    8    9 1
  18    8   13 am
  19    9   10 1
  20    9   35 1
  21    9   36 1
  22   10   11 ar
  23   11   12 1
  24   12   37 1
  25   12   38 1
  26   12   39 1
  27   13   14 2
  28   13   15 1
  29   15   16 1
  30   15   40 1
  31   15   41 1
  32   16   17 1
  33   16   19 1
  34   16   18 1
  35   18   19 1
  36   18   42 1
  37   18   43 1
  38   19   20 1
  39   19   21 1
  40   21   27 ar
  41   21   22 ar
  42   22   23 ar
  43   22   44 1
  44   23   24 ar
  45   23   45 1
  46   24   25 1
  47   24   26 ar
  48   26   27 ar
  49   27   46 1

#	End of record

