#	Name: ASD05062011
#	Creating user name:	WinNT
#	Creation time:	15. 06. 2019 20:56

#	Modifying user name:	WinNT
#	Modification time:	15. 06. 2019 20:56

#	Program:	/corina/corina34_cracker 3.40 0067  02.08.2006

@<TRIPOS>MOLECULE
ASD05062011
  45   47    0    0    0
SMALL
NO_CHARGES


@<TRIPOS>ATOM
   1 C1            -0.0169     1.3933     0.0097 C.ar    
   2 C2             0.0021    -0.0041     0.0020 C.ar    
   3 N3             1.1266     2.0815     0.0025 N.ar    
   4 C4             2.3018     1.4952    -0.0119 C.ar    
   5 C5             2.4153     0.1162    -0.0204 C.ar    
   6 C6             1.2636    -0.6613    -0.0148 C.ar    
   7 C7             1.3476    -2.1406    -0.0236 C.ar    
   8 C8             0.8879    -2.8743     1.0694 C.ar    
   9 C9             0.9688    -4.2518     1.0554 C.ar    
  10 C10            1.5051    -4.9048    -0.0399 C.ar    
  11 C11            1.9629    -4.1823    -1.1272 C.ar    
  12 C12            1.8815    -2.8048    -1.1274 C.ar    
  13 C13            3.5497     2.3401    -0.0198 C.3     
  14 C14            3.7738    -0.5357    -0.0368 C.3     
  15 C15            4.5224    -0.1059    -1.2721 C.2     
  16 O16            5.7632    -0.5651    -1.4987 O.3     
  17 O17            4.0058     0.6521    -2.0585 O.2     
  18 C18            4.5575    -0.1128     1.2074 C.3     
  19 C19            5.8860    -0.8702     1.2552 C.3     
  20 C20            6.6696    -0.4473     2.4994 C.3     
  21 C21           -1.3346    -0.5674     0.0123 C.2     
  22 C22           -2.3101     0.3206     0.0267 C.2     
  23 S23           -1.6839     1.9579     0.0359 S.3     
  24 C24           -3.7762    -0.0282     0.0386 C.3     
  25 H25            0.4696    -2.3656     1.9254 H       
  26 H26            0.6131    -4.8212     1.9014 H       
  27 H27            1.5671    -5.9830    -0.0460 H       
  28 H28            2.3809    -4.6976    -1.9793 H       
  29 H29            2.2392    -2.2417    -1.9768 H       
  30 H30            3.8606     2.5386     1.0059 H       
  31 H31            4.3444     1.8094    -0.5441 H       
  32 H32            3.3467     3.2833    -0.5269 H       
  33 H33            3.6568    -1.6194    -0.0415 H       
  34 H34            6.2034    -0.2613    -2.3043 H       
  35 H35            4.7515     0.9590     1.1677 H       
  36 H36            3.9752    -0.3439     2.0994 H       
  37 H37            5.6920    -1.9420     1.2949 H       
  38 H38            6.4683    -0.6391     0.3632 H       
  39 H39            6.8636     0.6246     2.4597 H       
  40 H40            6.0874    -0.6783     3.3914 H       
  41 H41            7.6161    -0.9868     2.5335 H       
  42 H42           -1.5171    -1.6319     0.0081 H       
  43 H43           -4.1199    -0.1183     1.0690 H       
  44 H44           -4.3404     0.7565    -0.4654 H       
  45 H45           -3.9285    -0.9751    -0.4794 H       
@<TRIPOS>BOND
   1    1    2 ar
   2    1    3 ar
   3    1   23 1
   4    2   21 1
   5    2    6 ar
   6    3    4 ar
   7    4    5 ar
   8    4   13 1
   9    5    6 ar
  10    5   14 1
  11    6    7 1
  12    7    8 ar
  13    7   12 ar
  14    8    9 ar
  15    8   25 1
  16    9   10 ar
  17    9   26 1
  18   10   11 ar
  19   10   27 1
  20   11   12 ar
  21   11   28 1
  22   12   29 1
  23   13   30 1
  24   13   31 1
  25   13   32 1
  26   14   15 1
  27   14   18 1
  28   14   33 1
  29   15   16 1
  30   15   17 2
  31   16   34 1
  32   18   19 1
  33   18   35 1
  34   18   36 1
  35   19   20 1
  36   19   37 1
  37   19   38 1
  38   20   39 1
  39   20   40 1
  40   20   41 1
  41   21   22 2
  42   21   42 1
  43   22   23 1
  44   22   24 1
  45   24   43 1
  46   24   44 1
  47   24   45 1

#	End of record

