#	Name: ASD01200098
#	Creating user name:	WinNT
#	Creation time:	15. 06. 2019 19:08

#	Modifying user name:	WinNT
#	Modification time:	15. 06. 2019 19:08

#	Program:	/corina/corina34_cracker 3.40 0067  02.08.2006

@<TRIPOS>MOLECULE
ASD01200098
  54   57    0    0    0
SMALL
NO_CHARGES


@<TRIPOS>ATOM
   1 C1            -1.4334     0.8553    -0.4692 C.2     
   2 C2            -2.1405    -0.4592    -0.6766 C.3     
   3 O3            -0.2214     0.8998    -0.4774 O.2     
   4 N4            -2.1479     1.9824    -0.2803 N.am    
   5 C5            -1.4605     3.2603    -0.0787 C.3     
   6 C6            -5.1650     7.8771    -0.8828 C.2     
   7 N7            -5.2171     7.4103     0.3400 N.2     
   8 C8            -4.3605     6.3689     0.4672 C.ar    
   9 C9            -3.7371     6.1888    -0.7810 C.ar    
  10 N10           -4.2635     7.1551    -1.6168 N.pl3   
  11 C11           -4.0269     5.5248     1.5317 C.ar    
  12 C12           -3.0918     4.5264     1.3464 C.ar    
  13 C13           -2.4794     4.3549     0.1076 C.ar    
  14 C14           -2.7988     5.1799    -0.9491 C.ar    
  15 C15           -5.9656     9.0113    -1.3955 C.ar    
  16 C16           -6.8586     9.6664    -0.5483 C.ar    
  17 C17           -7.6001    10.7258    -1.0424 C.ar    
  18 C18           -7.4244    11.0959    -2.3681 C.ar    
  19 C19           -6.5206    10.4016    -3.1527 C.ar    
  20 N20           -5.8238     9.4005    -2.6569 N.ar    
  21 O21           -2.7663     3.7056     2.3802 O.3     
  22 C22           -3.4621     3.8340     3.5402 C.ar    
  23 C23           -4.6299     3.1100     3.7339 C.ar    
  24 C24           -5.3352     3.2420     4.9143 C.ar    
  25 C25           -4.8786     4.0950     5.9022 C.ar    
  26 C26           -3.7153     4.8177     5.7117 C.ar    
  27 C27           -3.0031     4.6850     4.5354 C.ar    
  28 S28           -5.7813     4.2620     7.4061 S.o2    
  29 O29           -5.4450     5.5608     7.8744 O.2     
  30 O30           -7.1177     3.9344     7.0510 O.2     
  31 C31           -5.0829     2.9916     8.4966 C.3     
  32 C32           -5.7928     3.0359     9.8512 C.3     
  33 H33           -1.4036    -1.2501    -0.8162 H       
  34 H34           -2.7535    -0.6837     0.1963 H       
  35 H35           -2.7759    -0.3946    -1.5598 H       
  36 H36           -3.1172     1.9474    -0.2777 H       
  37 H37           -0.8288     3.1973     0.8074 H       
  38 H38           -0.8437     3.4824    -0.9495 H       
  39 H39           -4.0368     7.2952    -2.5494 H       
  40 H40           -4.4990     5.6537     2.4944 H       
  41 H41           -2.3200     5.0412    -1.9072 H       
  42 H42           -6.9705     9.3515     0.4787 H       
  43 H43           -8.2998    11.2523    -0.4103 H       
  44 H44           -7.9881    11.9180    -2.7837 H       
  45 H45           -6.3818    10.6874    -4.1849 H       
  46 H46           -4.9873     2.4441     2.9624 H       
  47 H47           -6.2441     2.6787     5.0656 H       
  48 H48           -3.3610     5.4835     6.4847 H       
  49 H49           -2.0923     5.2465     4.3888 H       
  50 H50           -5.2219     2.0091     8.0455 H       
  51 H51           -4.0185     3.1792     8.6379 H       
  52 H52           -5.6537     4.0183    10.3023 H       
  53 H53           -6.8572     2.8482     9.7099 H       
  54 H54           -5.3731     2.2725    10.5064 H       
@<TRIPOS>BOND
   1    1    2 1
   2    1    3 2
   3    1    4 am
   4    2   33 1
   5    2   34 1
   6    2   35 1
   7    4    5 1
   8    4   36 1
   9    5   13 1
  10    5   37 1
  11    5   38 1
  12    6    7 2
  13    6   10 1
  14    6   15 1
  15    7    8 1
  16    8    9 ar
  17    8   11 ar
  18    9   10 1
  19    9   14 ar
  20   10   39 1
  21   11   12 ar
  22   11   40 1
  23   12   13 ar
  24   12   21 1
  25   13   14 ar
  26   14   41 1
  27   15   16 ar
  28   15   20 ar
  29   16   17 ar
  30   16   42 1
  31   17   18 ar
  32   17   43 1
  33   18   19 ar
  34   18   44 1
  35   19   20 ar
  36   19   45 1
  37   21   22 1
  38   22   23 ar
  39   22   27 ar
  40   23   24 ar
  41   23   46 1
  42   24   25 ar
  43   24   47 1
  44   25   26 ar
  45   25   28 1
  46   26   27 ar
  47   26   48 1
  48   27   49 1
  49   28   29 2
  50   28   30 2
  51   28   31 1
  52   31   32 1
  53   31   50 1
  54   31   51 1
  55   32   52 1
  56   32   53 1
  57   32   54 1

#	End of record

