#	Name: ASD03092508
#	Creating user name:	WinNT
#	Creation time:	15. 06. 2019 20:32

#	Modifying user name:	WinNT
#	Modification time:	15. 06. 2019 20:32

#	Program:	/corina/corina34_cracker 3.40 0067  02.08.2006

@<TRIPOS>MOLECULE
ASD03092508
  33   35    0    0    0
SMALL
NO_CHARGES


@<TRIPOS>ATOM
   1 C1            -0.0165     1.3627     0.0095 C.2     
   2 C2             0.0021    -0.0041     0.0020 C.2     
   3 C3             1.2711    -0.5307    -0.0129 C.2     
   4 C4             2.2609     0.3728    -0.0175 C.2     
   5 S5             1.6369     1.9607    -0.0030 S.3     
   6 C6            -1.2210     2.1958     0.0200 C.2     
   7 O7            -2.3212     1.6751     0.0226 O.2     
   8 N8            -1.1113     3.5391     0.0268 N.am    
   9 C9            -2.3162     4.3724     0.0373 C.3     
  10 N10           -0.8451     9.8038    -0.2138 N.pl3   
  11 C11           -0.8074     9.9738    -1.5709 C.2     
  12 C12           -1.1228     8.8227    -2.1852 C.2     
  13 C13           -1.3837     7.8347    -1.1356 C.ar    
  14 C14           -1.7493     6.4871    -1.1404 C.ar    
  15 C15           -1.9211     5.8267     0.0432 C.ar    
  16 C16           -1.7350     6.4848     1.2514 C.ar    
  17 C17           -1.3747     7.8140     1.2792 C.ar    
  18 C18           -1.1944     8.5061     0.0859 C.ar    
  19 C19           -0.4634    11.2626    -2.2722 C.3     
  20 Cl20           3.9518    -0.0200    -0.0349 Cl      
  21 H21           -0.8920    -0.6099     0.0079 H       
  22 H22            1.4573    -1.5945    -0.0201 H       
  23 H23           -0.2346     3.9541     0.0247 H       
  24 H24           -2.9117     4.1613    -0.8509 H       
  25 H25           -2.9029     4.1517     0.9290 H       
  26 H26           -0.6505    10.4936     0.4399 H       
  27 H27           -1.1743     8.6564    -3.2511 H       
  28 H28           -1.8966     5.9689    -2.0765 H       
  29 H29           -1.8745     5.9492     2.1788 H       
  30 H30           -1.2327     8.3172     2.2242 H       
  31 H31            0.6115    11.3051    -2.4477 H       
  32 H32           -0.9894    11.3090    -3.2257 H       
  33 H33           -0.7636    12.1060    -1.6502 H       
@<TRIPOS>BOND
   1    1    2 2
   2    1    5 1
   3    1    6 1
   4    2    3 1
   5    2   21 1
   6    3    4 2
   7    3   22 1
   8    4    5 1
   9    4   20 1
  10    6    7 2
  11    6    8 am
  12    8    9 1
  13    8   23 1
  14    9   15 1
  15    9   24 1
  16    9   25 1
  17   10   11 1
  18   10   18 1
  19   10   26 1
  20   11   12 2
  21   11   19 1
  22   12   13 1
  23   12   27 1
  24   13   14 ar
  25   13   18 ar
  26   14   15 ar
  27   14   28 1
  28   15   16 ar
  29   16   17 ar
  30   16   29 1
  31   17   18 ar
  32   17   30 1
  33   19   31 1
  34   19   32 1
  35   19   33 1

#	End of record

