#	Name: ASD01916152
#	Creating user name:	WinNT
#	Creation time:	15. 06. 2019 20:06

#	Modifying user name:	WinNT
#	Modification time:	15. 06. 2019 20:06

#	Program:	/corina/corina34_cracker 3.40 0067  02.08.2006

@<TRIPOS>MOLECULE
ASD01916152
  45   48    0    0    0
SMALL
NO_CHARGES


@<TRIPOS>ATOM
   1 C1             0.0830     1.3905    -0.0626 C.ar    
   2 C2             0.0875     0.0092    -0.0619 C.ar    
   3 C3             1.2915    -0.6806    -0.0592 C.ar    
   4 C4             2.4891     0.0185    -0.0574 C.ar    
   5 C5             2.4805     1.4023    -0.0582 C.ar    
   6 C6             1.2770     2.0873    -0.0607 C.ar    
   7 O7             1.2971    -2.0396    -0.0580 O.3     
   8 C8             2.5730    -2.6831    -0.0553 C.3     
   9 C9             2.3816    -4.1779    -0.0543 C.2     
  10 C10            1.1516    -4.8480    -0.0558 C.2     
  11 N11            3.3372    -5.0742    -0.0577 N.2     
  12 N12            2.7468    -6.3409    -0.0597 N.pl3   
  13 C13            1.4045    -6.1704    -0.0535 C.2     
  14 C14            3.4276    -7.6385    -0.0763 C.3     
  15 C15            2.4526    -8.7265     0.3869 C.3     
  16 N16            1.1636    -8.5453    -0.2979 N.am    
  17 C17            0.4085    -7.3057    -0.0398 C.3     
  18 C18            0.6870    -9.4832    -1.1403 C.2     
  19 C19           -0.6670    -9.3412    -1.7143 C.ar    
  20 O20            1.3713   -10.4460    -1.4279 O.2     
  21 C21           -1.6893    -8.7736    -0.9572 C.ar    
  22 C22           -3.2083    -9.0827    -2.8118 C.ar    
  23 C23           -2.1844    -9.6400    -3.5591 C.ar    
  24 C24           -0.9223    -9.7712    -3.0200 C.ar    
  25 C25           -2.9640    -8.6429    -1.5051 C.ar    
  26 F26            3.6463     2.0851    -0.0564 F       
  27 F27           -4.4428    -8.9575    -3.3462 F       
  28 C28           -4.0210    -8.0610    -0.7338 C.1     
  29 N29           -4.8594    -7.5993    -0.1219 N.1     
  30 H30           -0.8545     1.9268    -0.0692 H       
  31 H31           -0.8461    -0.5339    -0.0629 H       
  32 H32            3.4274    -0.5163    -0.0550 H       
  33 H33            1.2712     3.1673    -0.0614 H       
  34 H34            3.1303    -2.3888    -0.9446 H       
  35 H35            3.1273    -2.3872     0.8353 H       
  36 H36            0.1751    -4.3865    -0.0583 H       
  37 H37            3.7654    -7.8595    -1.0888 H       
  38 H38            4.2852    -7.6083     0.5958 H       
  39 H39            2.8596    -9.7078     0.1431 H       
  40 H40            2.3064    -8.6496     1.4643 H       
  41 H41           -0.0748    -7.3611     0.9357 H       
  42 H42           -0.3395    -7.1569    -0.8186 H       
  43 H43           -1.4949    -8.4365     0.0502 H       
  44 H44           -2.3754    -9.9736    -4.5683 H       
  45 H45           -0.1283   -10.2072    -3.6081 H       
@<TRIPOS>BOND
   1    1    2 ar
   2    1    6 ar
   3    1   30 1
   4    2    3 ar
   5    2   31 1
   6    3    4 ar
   7    3    7 1
   8    4    5 ar
   9    4   32 1
  10    5    6 ar
  11    5   26 1
  12    6   33 1
  13    7    8 1
  14    8    9 1
  15    8   34 1
  16    8   35 1
  17    9   10 1
  18    9   11 2
  19   10   13 2
  20   10   36 1
  21   11   12 1
  22   12   13 1
  23   12   14 1
  24   13   17 1
  25   14   15 1
  26   14   37 1
  27   14   38 1
  28   15   16 1
  29   15   39 1
  30   15   40 1
  31   16   17 1
  32   16   18 am
  33   17   41 1
  34   17   42 1
  35   18   19 1
  36   18   20 2
  37   19   21 ar
  38   19   24 ar
  39   21   25 ar
  40   21   43 1
  41   22   23 ar
  42   22   27 1
  43   22   25 ar
  44   23   24 ar
  45   23   44 1
  46   24   45 1
  47   25   28 1
  48   28   29 3

#	End of record

