#	Name: ASD01870664
#	Creating user name:	WinNT
#	Creation time:	15. 06. 2019 19:39

#	Modifying user name:	WinNT
#	Modification time:	15. 06. 2019 19:39

#	Program:	/corina/corina34_cracker 3.40 0067  02.08.2006

@<TRIPOS>MOLECULE
ASD01870664
  36   38    0    0    0
SMALL
NO_CHARGES


@<TRIPOS>ATOM
   1 C1            -0.0169     1.3958     0.0097 C.ar    
   2 C2             0.0021    -0.0041     0.0020 C.ar    
   3 C3             1.2190    -0.6691    -0.0131 C.ar    
   4 C4             2.4245     0.0547    -0.0207 C.ar    
   5 C5             2.4222     1.4119    -0.0129 C.ar    
   6 C6             1.2037     2.1161     0.0019 C.ar    
   7 N7             1.1872     3.4529     0.0087 N.ar    
   8 C8             0.0531     4.1240     0.0226 C.ar    
   9 C9            -1.1875     3.4692     0.0315 C.ar    
  10 C10           -1.2354     2.1083     0.0310 C.ar    
  11 C11            1.2489    -2.1455    -0.0209 C.2     
  12 N12            2.4294    -2.7955    -0.0356 N.am    
  13 O13            0.2086    -2.7746    -0.0140 O.2     
  14 C14            2.4591    -4.2602    -0.0433 C.3     
  15 N15            0.0868     5.5087     0.0291 N.3     
  16 C16            1.4757     6.0034     0.0186 C.3     
  17 C17            1.6237     6.9243    -1.2109 C.3     
  18 C18            0.1615     7.3503    -1.5064 C.3     
  19 C19           -0.6187     6.0614    -1.1467 C.3     
  20 H20           -0.9230    -0.5613     0.0082 H       
  21 H21            3.3648    -0.4764    -0.0324 H       
  22 H22            3.3571     1.9525    -0.0185 H       
  23 H23           -2.1024     4.0430     0.0432 H       
  24 H24           -2.1814     1.5874     0.0420 H       
  25 H25            3.2594    -2.2936    -0.0411 H       
  26 H26            3.4938    -4.6026    -0.0550 H       
  27 H27            1.9614    -4.6384     0.8497 H       
  28 H28            1.9441    -4.6294    -0.9302 H       
  29 H29            1.6756     6.5668     0.9300 H       
  30 H30            2.1675     5.1648    -0.0609 H       
  31 H31            2.2370     7.7927    -0.9703 H       
  32 H32            2.0435     6.3765    -2.0545 H       
  33 H33           -0.1401     8.1804    -0.8675 H       
  34 H34            0.0336     7.6033    -2.5589 H       
  35 H35           -0.5863     5.3544    -1.9756 H       
  36 H36           -1.6510     6.3013    -0.8916 H       
@<TRIPOS>BOND
   1    1    2 ar
   2    1    6 ar
   3    1   10 ar
   4    2    3 ar
   5    2   20 1
   6    3    4 ar
   7    3   11 1
   8    4    5 ar
   9    4   21 1
  10    5    6 ar
  11    5   22 1
  12    6    7 ar
  13    7    8 ar
  14    8    9 ar
  15    8   15 1
  16    9   10 ar
  17    9   23 1
  18   10   24 1
  19   11   12 am
  20   11   13 2
  21   12   14 1
  22   12   25 1
  23   14   26 1
  24   14   27 1
  25   14   28 1
  26   15   16 1
  27   15   19 1
  28   16   17 1
  29   16   29 1
  30   16   30 1
  31   17   18 1
  32   17   31 1
  33   17   32 1
  34   18   19 1
  35   18   33 1
  36   18   34 1
  37   19   35 1
  38   19   36 1

#	End of record

