#	Name: ASD00070022
#	Creating user name:	WinNT
#	Creation time:	15. 06. 2019 18:29

#	Modifying user name:	WinNT
#	Modification time:	15. 06. 2019 18:29

#	Program:	/corina/corina34_cracker 3.40 0067  02.08.2006

@<TRIPOS>MOLECULE
ASD00070022
  73   78    0    0    0
SMALL
NO_CHARGES


@<TRIPOS>ATOM
   1 N1            -0.0157     1.3055     0.0089 N.ar    
   2 C2             0.0020    -0.0039    -0.0152 C.ar    
   3 C3             1.1947    -0.7237    -0.0309 C.ar    
   4 C4             2.4055    -0.0442    -0.0211 C.ar    
   5 C5             2.3677     1.3734     0.0050 C.ar    
   6 C6             3.5438     2.1339     0.0160 C.ar    
   7 C7             3.4666     3.4943     0.0406 C.ar    
   8 C8             2.2319     4.1392     0.0550 C.ar    
   9 C9             1.0698     3.4309     0.0450 C.ar    
  10 C10            1.1096     2.0250     0.0196 C.ar    
  11 C11            3.6917    -0.7742    -0.0368 C.2     
  12 O12            4.7370    -0.1618    -0.1352 O.2     
  13 N13            3.7048    -2.1186     0.0580 N.am    
  14 C14            4.9787    -2.8417     0.0425 C.3     
  15 C15            4.8123    -4.1835     0.7585 C.3     
  16 C16            6.1429    -4.9387     0.7423 C.3     
  17 C17            6.5729    -5.1832    -0.7055 C.3     
  18 C18            6.7393    -3.8414    -1.4216 C.3     
  19 C19            5.4088    -3.0862    -1.4054 C.3     
  20 C20            7.9034    -5.9384    -0.7218 C.3     
  21 C21            8.2714    -6.2922    -2.1641 C.3     
  22 N22            9.5489    -7.0173    -2.1797 N.3     
  23 C23            9.8190    -7.5790    -3.5093 C.3     
  24 C24           11.0788    -8.4460    -3.4520 C.3     
  25 C25           12.2610    -7.5901    -2.9891 C.3     
  26 C26           11.9344    -6.9780    -1.6242 C.3     
  27 C27           10.6498    -6.1535    -1.7345 C.3     
  28 O28           16.7226    -8.5060    -4.3778 O.3     
  29 C29           16.4404    -7.1468    -4.7516 C.3     
  30 C30           14.8991    -7.0735    -4.6394 C.3     
  31 C31           14.6066    -8.1659    -3.6291 C.ar    
  32 C32           15.7473    -8.9538    -3.5403 C.ar    
  33 C33           13.4918    -8.4519    -2.8731 C.ar    
  34 C34           13.5022    -9.5307    -2.0063 C.ar    
  35 C35           14.6342   -10.3176    -1.9035 C.ar    
  36 C36           15.7512   -10.0347    -2.6624 C.ar    
  37 H37           -0.9349    -0.5410    -0.0226 H       
  38 H38            1.1776    -1.8034    -0.0504 H       
  39 H39            4.5067     1.6448     0.0054 H       
  40 H40            4.3741     4.0798     0.0494 H       
  41 H41            2.1963     5.2184     0.0748 H       
  42 H42            0.1207     3.9463     0.0560 H       
  43 H43            2.8706    -2.6073     0.1366 H       
  44 H44            5.7388    -2.2496     0.5522 H       
  45 H45            4.5060    -4.0094     1.7900 H       
  46 H46            4.0523    -4.7756     0.2488 H       
  47 H47            6.9029    -4.3467     1.2521 H       
  48 H48            6.0243    -5.8947     1.2524 H       
  49 H49            5.8128    -5.7752    -1.2153 H       
  50 H50            7.4994    -3.2493    -0.9118 H       
  51 H51            7.0457    -4.0155    -2.4531 H       
  52 H52            4.6487    -3.6782    -1.9151 H       
  53 H53            5.5273    -2.1302    -1.9155 H       
  54 H54            8.6832    -5.3099    -0.2915 H       
  55 H55            7.8093    -6.8528    -0.1360 H       
  56 H56            7.4917    -6.9207    -2.5943 H       
  57 H57            8.3655    -5.3778    -2.7498 H       
  58 H58            8.9725    -8.1888    -3.8248 H       
  59 H59            9.9683    -6.7683    -4.2225 H       
  60 H60           10.9252    -9.2649    -2.7492 H       
  61 H61           11.2878    -8.8501    -4.4425 H       
  62 H62           12.4394    -6.7940    -3.7120 H       
  63 H63           11.7943    -7.7738    -0.8926 H       
  64 H64           12.7547    -6.3332    -1.3088 H       
  65 H65           10.7952    -5.3495    -2.4560 H       
  66 H66           10.4067    -5.7279    -0.7609 H       
  67 H67           16.9116    -6.4500    -4.0584 H       
  68 H68           16.7627    -6.9529    -5.7746 H       
  69 H69           14.5816    -6.1006    -4.2642 H       
  70 H70           14.4278    -7.2926    -5.5975 H       
  71 H71           12.6292    -9.7568    -1.4121 H       
  72 H72           14.6443   -11.1580    -1.2253 H       
  73 H73           16.6313   -10.6547    -2.5762 H       
@<TRIPOS>BOND
   1    1    2 ar
   2    1   10 ar
   3    2    3 ar
   4    2   37 1
   5    3    4 ar
   6    3   38 1
   7    4    5 ar
   8    4   11 1
   9    5    6 ar
  10    5   10 ar
  11    6    7 ar
  12    6   39 1
  13    7    8 ar
  14    7   40 1
  15    8    9 ar
  16    8   41 1
  17    9   10 ar
  18    9   42 1
  19   11   12 2
  20   11   13 am
  21   13   14 1
  22   13   43 1
  23   14   15 1
  24   14   19 1
  25   14   44 1
  26   15   16 1
  27   15   45 1
  28   15   46 1
  29   16   17 1
  30   16   47 1
  31   16   48 1
  32   17   18 1
  33   17   20 1
  34   17   49 1
  35   18   19 1
  36   18   50 1
  37   18   51 1
  38   19   52 1
  39   19   53 1
  40   20   21 1
  41   20   54 1
  42   20   55 1
  43   21   22 1
  44   21   56 1
  45   21   57 1
  46   22   23 1
  47   22   27 1
  48   23   24 1
  49   23   58 1
  50   23   59 1
  51   24   25 1
  52   24   60 1
  53   24   61 1
  54   25   26 1
  55   25   33 1
  56   25   62 1
  57   26   27 1
  58   26   63 1
  59   26   64 1
  60   27   65 1
  61   27   66 1
  62   28   29 1
  63   28   32 1
  64   29   30 1
  65   29   67 1
  66   29   68 1
  67   30   31 1
  68   30   69 1
  69   30   70 1
  70   31   32 ar
  71   31   33 ar
  72   32   36 ar
  73   33   34 ar
  74   34   35 ar
  75   34   71 1
  76   35   36 ar
  77   35   72 1
  78   36   73 1

#	End of record

