#	Name: ASD03091923
#	Creating user name:	WinNT
#	Creation time:	15. 06. 2019 20:31

#	Modifying user name:	WinNT
#	Modification time:	15. 06. 2019 20:31

#	Program:	/corina/corina34_cracker 3.40 0067  02.08.2006

@<TRIPOS>MOLECULE
ASD03091923
  56   60    0    0    0
SMALL
NO_CHARGES


@<TRIPOS>ATOM
   1 C1            -0.0150     1.3951     0.0120 C.ar    
   2 C2            -1.2495     2.0686     0.0343 C.ar    
   3 C3            -2.4497     1.3140     0.0358 C.ar    
   4 C4            -2.3931    -0.0936     0.0127 C.ar    
   5 C5            -1.1946    -0.7309    -0.0091 C.ar    
   6 C6             0.0034    -0.0000    -0.0094 C.ar    
   7 O7             1.1602     2.0650     0.0163 O.3     
   8 C8             2.2582     1.4564     0.6964 C.3     
   9 N9             2.4079     0.0581     0.2907 N.am    
  10 C10            1.3159    -0.6756    -0.0260 C.2     
  11 C11           -3.6690    -0.8955     0.0127 C.3     
  12 N12           -4.2253    -0.9307    -1.3464 N.3     
  13 C13           -3.3420    -1.6696    -2.2576 C.3     
  14 C14           -5.5805    -1.4961    -1.3459 C.3     
  15 C15           -6.1822    -1.3835    -2.7485 C.3     
  16 C16           -5.2944    -2.1386    -3.7415 C.3     
  17 C17           -3.8768    -1.5622    -3.6874 C.3     
  18 O18            1.4125    -1.8531    -0.3144 O.2     
  19 C19            3.7405    -0.5472     0.2268 C.3     
  20 C20            4.5993     0.1760    -0.8310 C.3     
  21 C21            4.4635    -0.3732     1.5739 C.3     
  22 C22            5.7365     0.4498     1.2876 C.3     
  23 C23            5.4075     1.2169    -0.0171 C.3     
  24 O24            4.8164    -1.6505     2.1088 O.3     
  25 C25           -1.3165     3.4708     0.0556 C.ar    
  26 C26           -2.5300     4.0885     0.0795 C.ar    
  27 C27           -3.7096     3.3479     0.0826 C.ar    
  28 C28           -3.6823     1.9865     0.0608 C.ar    
  29 F29           -3.9038    -0.2186    -4.0763 F       
  30 F30           -3.0462    -2.2830    -4.5522 F       
  31 H31           -1.1629    -1.8103    -0.0268 H       
  32 H32            3.1731     1.9990     0.4586 H       
  33 H33            2.0841     1.5015     1.7715 H       
  34 H34           -3.4593    -1.9119     0.3459 H       
  35 H35           -4.3888    -0.4330     0.6881 H       
  36 H36           -2.3383    -1.2471    -2.2126 H       
  37 H37           -3.3083    -2.7177    -1.9602 H       
  38 H38           -5.5363    -2.5450    -1.0528 H       
  39 H39           -6.2026    -0.9475    -0.6387 H       
  40 H40           -7.1821    -1.8174    -2.7514 H       
  41 H41           -6.2395    -0.3338    -3.0367 H       
  42 H42           -5.2682    -3.1955    -3.4762 H       
  43 H43           -5.6957    -2.0247    -4.7486 H       
  44 H44            3.6579    -1.6061    -0.0185 H       
  45 H45            5.2704    -0.5276    -1.3235 H       
  46 H46            3.9635     0.6743    -1.5629 H       
  47 H47            3.8230     0.1617     2.2751 H       
  48 H48            5.9307     1.1479     2.1020 H       
  49 H49            6.5913    -0.2096     1.1373 H       
  50 H50            6.3211     1.4938    -0.5433 H       
  51 H51            4.8007     2.0972     0.1949 H       
  52 H52            5.2758    -1.6078     2.9586 H       
  53 H53           -0.4095     4.0571     0.0534 H       
  54 H54           -2.5783     5.1673     0.0966 H       
  55 H55           -4.6598     3.8608     0.1023 H       
  56 H56           -4.6055     1.4260     0.0631 H       
@<TRIPOS>BOND
   1    1    6 ar
   2    1    7 1
   3    1    2 ar
   4    2    3 ar
   5    2   25 ar
   6    3    4 ar
   7    3   28 ar
   8    4    5 ar
   9    4   11 1
  10    5    6 ar
  11    5   31 1
  12    6   10 1
  13    7    8 1
  14    8    9 1
  15    8   32 1
  16    8   33 1
  17    9   10 am
  18    9   19 1
  19   10   18 2
  20   11   12 1
  21   11   34 1
  22   11   35 1
  23   12   14 1
  24   12   13 1
  25   13   17 1
  26   13   36 1
  27   13   37 1
  28   14   15 1
  29   14   38 1
  30   14   39 1
  31   15   16 1
  32   15   40 1
  33   15   41 1
  34   16   17 1
  35   16   42 1
  36   16   43 1
  37   17   29 1
  38   17   30 1
  39   19   21 1
  40   19   20 1
  41   19   44 1
  42   20   23 1
  43   20   45 1
  44   20   46 1
  45   21   22 1
  46   21   24 1
  47   21   47 1
  48   22   23 1
  49   22   48 1
  50   22   49 1
  51   23   50 1
  52   23   51 1
  53   24   52 1
  54   25   26 ar
  55   25   53 1
  56   26   27 ar
  57   26   54 1
  58   27   28 ar
  59   27   55 1
  60   28   56 1

#	End of record

