#	Name: ASD00192129
#	Creating user name:	WinNT
#	Creation time:	15. 06. 2019 18:33

#	Modifying user name:	WinNT
#	Modification time:	15. 06. 2019 18:33

#	Program:	/corina/corina34_cracker 3.40 0067  02.08.2006

@<TRIPOS>MOLECULE
ASD00192129
  53   57    0    0    0
SMALL
NO_CHARGES


@<TRIPOS>ATOM
   1 C1            -0.2272     0.3233     0.6621 C.ar    
   2 C2            -0.0129    -1.0502     0.6353 C.ar    
   3 C3             1.2433    -1.5622     0.4996 C.ar    
   4 C4             2.3415    -0.6961     0.3842 C.ar    
   5 C5             2.1172     0.7007     0.4117 C.ar    
   6 C6             0.8189     1.1941     0.5523 C.ar    
   7 N7             3.5864    -1.1766     0.2503 N.ar    
   8 C8             4.6405    -0.3975     0.1398 C.ar    
   9 C9             4.5326     1.0022     0.1553 C.ar    
  10 C10            3.2715     1.5923     0.2903 C.ar    
  11 N11            5.4283     2.0448     0.0633 N.pl3   
  12 C12            4.7186     3.1925     0.1423 C.2     
  13 N13            3.4490     2.9215     0.2758 N.2     
  14 N14            5.8944    -0.9754     0.0047 N.pl3   
  15 C15            5.3061     4.5790     0.0841 C.3     
  16 C16            5.7719     4.9945     1.4810 C.3     
  17 C17            6.3684     6.4022     1.4219 C.3     
  18 C18            7.5607     6.4111     0.4631 C.3     
  19 C19            7.0948     5.9956    -0.9338 C.3     
  20 C20            6.4983     4.5879    -0.8747 C.3     
  21 C21            6.4215    -1.2369    -1.2519 C.2     
  22 C22            6.6932    -1.3170     1.1885 C.3     
  23 C23            8.1192    -0.8814     0.9600 C.2     
  24 C24            8.6049    -0.8236    -0.2790 C.2     
  25 C25            7.7535    -1.1718    -1.4175 C.2     
  26 C26            5.5190    -1.5871    -2.4069 C.3     
  27 F27            6.2960    -1.9174    -3.5224 F       
  28 F28            4.7168    -2.6787    -2.0576 F       
  29 F29            4.7064    -0.4902    -2.7129 F       
  30 C30           10.0312    -0.3952    -0.5096 C.3     
  31 F31           10.6376    -0.1123     0.7189 F       
  32 F32           10.7300    -1.4252    -1.1484 F       
  33 F33           10.0500     0.7496    -1.3136 F       
  34 H34           -1.2319     0.7054     0.7663 H       
  35 H35           -0.8542    -1.7216     0.7237 H       
  36 H36            1.3929    -2.6317     0.4814 H       
  37 H37            0.6425     2.2594     0.5734 H       
  38 H38            6.3899     1.9693    -0.0388 H       
  39 H39            4.5498     5.2795    -0.2700 H       
  40 H40            4.9225     4.9882     2.1641 H       
  41 H41            6.5282     4.2940     1.8351 H       
  42 H42            5.6121     7.1027     1.0678 H       
  43 H43            6.7003     6.6983     2.4171 H       
  44 H44            7.9856     7.4140     0.4210 H       
  45 H45            8.3169     5.7106     0.8173 H       
  46 H46            6.3385     6.6961    -1.2879 H       
  47 H47            7.9442     6.0019    -1.6169 H       
  48 H48            7.2546     3.8874    -0.5206 H       
  49 H49            6.1665     4.2919    -1.8699 H       
  50 H50            6.2902    -0.8032     2.0613 H       
  51 H51            6.6624    -2.3943     1.3509 H       
  52 H52            8.7453    -0.6171     1.7994 H       
  53 H53            8.1917    -1.3774    -2.3830 H       
@<TRIPOS>BOND
   1    1    2 ar
   2    1    6 ar
   3    1   34 1
   4    2    3 ar
   5    2   35 1
   6    3    4 ar
   7    3   36 1
   8    4    5 ar
   9    4    7 ar
  10    5    6 ar
  11    5   10 ar
  12    6   37 1
  13    7    8 ar
  14    8    9 ar
  15    8   14 1
  16    9   10 ar
  17    9   11 1
  18   10   13 1
  19   11   12 1
  20   11   38 1
  21   12   13 2
  22   12   15 1
  23   14   21 1
  24   14   22 1
  25   15   16 1
  26   15   20 1
  27   15   39 1
  28   16   17 1
  29   16   40 1
  30   16   41 1
  31   17   18 1
  32   17   42 1
  33   17   43 1
  34   18   19 1
  35   18   44 1
  36   18   45 1
  37   19   20 1
  38   19   46 1
  39   19   47 1
  40   20   48 1
  41   20   49 1
  42   21   26 1
  43   21   25 2
  44   22   23 1
  45   22   50 1
  46   22   51 1
  47   23   24 2
  48   23   52 1
  49   24   25 1
  50   24   30 1
  51   25   53 1
  52   26   27 1
  53   26   28 1
  54   26   29 1
  55   30   31 1
  56   30   32 1
  57   30   33 1

#	End of record

