#	Name: ASD01913299
#	Creating user name:	WinNT
#	Creation time:	15. 06. 2019 20:01

#	Modifying user name:	WinNT
#	Modification time:	15. 06. 2019 20:01

#	Program:	/corina/corina34_cracker 3.40 0067  02.08.2006

@<TRIPOS>MOLECULE
ASD01913299
  40   42    0    0    0
SMALL
NO_CHARGES


@<TRIPOS>ATOM
   1 C1            -0.0169     1.3971     0.0097 C.ar    
   2 C2             0.0021    -0.0041     0.0020 C.ar    
   3 C3             1.2454    -0.6502    -0.0133 C.ar    
   4 N4             2.3460     0.0795    -0.0199 N.ar    
   5 C5             2.2851     1.4038    -0.0122 C.ar    
   6 N6             1.1293     2.0528     0.0023 N.ar    
   7 N7             3.4624     2.1297    -0.0191 N.pl3   
   8 C8             3.4200     3.5941    -0.0108 C.3     
   9 C9            -1.2168    -0.7557     0.0101 C.1     
  10 C10           -2.2161    -1.3719     0.0167 C.1     
  11 C11           -3.4349    -2.1235     0.0248 C.ar    
  12 C12           -3.3984    -3.5204     0.0169 C.ar    
  13 C13           -4.5764    -4.2376     0.0252 C.ar    
  14 C14           -5.7924    -3.5773     0.0409 C.ar    
  15 C15           -5.8364    -2.1942     0.0487 C.ar    
  16 C16           -4.6665    -1.4637     0.0464 C.ar    
  17 C17            4.7176     4.1385     0.5899 C.3     
  18 C18            4.6733     5.6678     0.5985 C.3     
  19 C19            4.5198     6.1817    -0.8344 C.3     
  20 C20            3.2222     5.6373    -1.4351 C.3     
  21 C21            3.2664     4.1080    -1.4437 C.3     
  22 H22           -0.9548     1.9326     0.0171 H       
  23 H23            1.3027    -1.7287    -0.0193 H       
  24 H24            4.3161     1.6693    -0.0294 H       
  25 H25            2.5735     3.9297     0.5882 H       
  26 H26           -2.4501    -4.0371     0.0040 H       
  27 H27           -4.5498    -5.3173     0.0192 H       
  28 H28           -6.7117    -4.1441     0.0466 H       
  29 H29           -6.7890    -1.6856     0.0606 H       
  30 H30           -4.7023    -0.3843     0.0525 H       
  31 H31            4.8270     3.7724     1.6107 H       
  32 H32            5.5641     3.8028    -0.0092 H       
  33 H33            3.8268     6.0034     1.1976 H       
  34 H34            5.5978     6.0556     1.0265 H       
  35 H35            4.4882     7.2712    -0.8282 H       
  36 H36            5.3663     5.8461    -1.4334 H       
  37 H37            2.3756     5.9729    -0.8360 H       
  38 H38            3.1128     6.0034    -2.4559 H       
  39 H39            4.1130     3.7724    -2.0428 H       
  40 H40            2.3420     3.7202    -1.8717 H       
@<TRIPOS>BOND
   1    1    2 ar
   2    1    6 ar
   3    1   22 1
   4    2    3 ar
   5    2    9 1
   6    3    4 ar
   7    3   23 1
   8    4    5 ar
   9    5    6 ar
  10    5    7 1
  11    7    8 1
  12    7   24 1
  13    8   17 1
  14    8   21 1
  15    8   25 1
  16    9   10 3
  17   10   11 1
  18   11   12 ar
  19   11   16 ar
  20   12   13 ar
  21   12   26 1
  22   13   14 ar
  23   13   27 1
  24   14   15 ar
  25   14   28 1
  26   15   16 ar
  27   15   29 1
  28   16   30 1
  29   17   18 1
  30   17   31 1
  31   17   32 1
  32   18   19 1
  33   18   33 1
  34   18   34 1
  35   19   20 1
  36   19   35 1
  37   19   36 1
  38   20   21 1
  39   20   37 1
  40   20   38 1
  41   21   39 1
  42   21   40 1

#	End of record

