#	Name: ASD02620004
#	Creating user name:	WinNT
#	Creation time:	15. 06. 2019 20:25

#	Modifying user name:	WinNT
#	Modification time:	15. 06. 2019 20:25

#	Program:	/corina/corina34_cracker 3.40 0067  02.08.2006

@<TRIPOS>MOLECULE
ASD02620004
  27   29    0    0    0
SMALL
NO_CHARGES


@<TRIPOS>ATOM
   1 C1            -0.0153     1.2783     0.0091 C.2     
   2 N2             0.0021    -0.0041     0.0020 N.2     
   3 C3             1.3882    -0.4924    -0.0138 C.3     
   4 C4             2.2336     0.7974    -0.0150 C.3     
   5 N5             1.2161     1.8622     0.0004 N.pl3   
   6 O6            -1.5262     2.6332    -1.2784 O.3     
   7 C7            -1.2943     2.0752     0.0196 C.3     
   8 C8            -2.4739     1.1563     0.3653 C.3     
   9 O9            -3.6715     1.9409     0.3542 O.3     
  10 C10           -3.8438     2.7789    -0.7044 C.ar    
  11 C11           -2.7718     3.1268    -1.5183 C.ar    
  12 C12           -5.1052     3.2899    -0.9698 C.ar    
  13 C13           -5.2953     4.1444    -2.0397 C.ar    
  14 C14           -4.2292     4.4915    -2.8478 C.ar    
  15 C15           -2.9691     3.9853    -2.5891 C.ar    
  16 H16            1.5954    -1.0850     0.8772 H       
  17 H17            1.5783    -1.0754    -0.9150 H       
  18 H18            2.8589     0.8490     0.8764 H       
  19 H19            2.8418     0.8587    -0.9175 H       
  20 H20            1.3923     2.8160     0.0034 H       
  21 H21           -1.2227     2.8754     0.7563 H       
  22 H22           -2.5491     0.3602    -0.3755 H       
  23 H23           -2.3261     0.7250     1.3554 H       
  24 H24           -5.9401     3.0198    -0.3401 H       
  25 H25           -6.2787     4.5411    -2.2446 H       
  26 H26           -4.3807     5.1598    -3.6826 H       
  27 H27           -2.1376     4.2584    -3.2219 H       
@<TRIPOS>BOND
   1    1    2 2
   2    1    5 1
   3    1    7 1
   4    2    3 1
   5    3    4 1
   6    3   16 1
   7    3   17 1
   8    4    5 1
   9    4   18 1
  10    4   19 1
  11    5   20 1
  12    6    7 1
  13    6   11 1
  14    7    8 1
  15    7   21 1
  16    8    9 1
  17    8   22 1
  18    8   23 1
  19    9   10 1
  20   10   11 ar
  21   10   12 ar
  22   11   15 ar
  23   12   13 ar
  24   12   24 1
  25   13   14 ar
  26   13   25 1
  27   14   15 ar
  28   14   26 1
  29   15   27 1

#	End of record

