#	Name: ASD01911918
#	Creating user name:	WinNT
#	Creation time:	15. 06. 2019 19:58

#	Modifying user name:	WinNT
#	Modification time:	15. 06. 2019 19:58

#	Program:	/corina/corina34_cracker 3.40 0067  02.08.2006

@<TRIPOS>MOLECULE
ASD01911918
  36   38    0    0    0
SMALL
NO_CHARGES


@<TRIPOS>ATOM
   1 C1             0.5952     0.6582     0.4739 C.ar    
   2 C2            -0.0960     0.0070    -0.5427 C.ar    
   3 C3             0.3862     0.1169    -1.8430 C.ar    
   4 N4             1.4770     0.8316    -2.0649 N.ar    
   5 C5             2.1040     1.4340    -1.0746 C.ar    
   6 N6             1.6786     1.3538     0.1702 N.ar    
   7 O7            -1.2132    -0.7181    -0.2725 O.3     
   8 C8            -1.1025    -2.0725    -0.2398 C.ar    
   9 C9            -2.2205    -2.8557     0.0224 C.ar    
  10 C10           -2.1082    -4.2338     0.0558 C.ar    
  11 C11           -0.8848    -4.8354    -0.1713 C.ar    
  12 C12            0.2349    -4.0571    -0.4336 C.ar    
  13 C13            0.1238    -2.6738    -0.4733 C.ar    
  14 N14            1.4733    -4.6670    -0.6634 N.am    
  15 C15            2.6093    -4.0504    -0.2814 C.2     
  16 C16            3.9211    -4.6443    -0.6160 C.ar    
  17 O17            2.5552    -3.0060     0.3384 O.2     
  18 C18            3.9850    -5.8442    -1.3280 C.ar    
  19 C19            5.2095    -6.4006    -1.6415 C.ar    
  20 C20            6.3781    -5.7760    -1.2542 C.ar    
  21 C21            6.3289    -4.5749    -0.5413 C.ar    
  22 C22            5.0966    -4.0052    -0.2267 C.ar    
  23 C23            7.5419    -3.9284    -0.1398 C.1     
  24 N24            8.5042    -3.4155     0.1787 N.1     
  25 F25           -3.4176    -2.2704     0.2452 F       
  26 H26            0.2498     0.6004     1.4956 H       
  27 H27           -0.1224    -0.3744    -2.6593 H       
  28 H28            2.9922     2.0097    -1.2892 H       
  29 H29           -2.9779    -4.8408     0.2600 H       
  30 H30           -0.7995    -5.9117    -0.1444 H       
  31 H31            0.9936    -2.0670    -0.6772 H       
  32 H32            1.5142    -5.5334    -1.0976 H       
  33 H33            3.0747    -6.3384    -1.6338 H       
  34 H34            5.2531    -7.3287    -2.1919 H       
  35 H35            7.3324    -6.2166    -1.5023 H       
  36 H36            5.0527    -3.0772     0.3239 H       
@<TRIPOS>BOND
   1    1    2 ar
   2    1    6 ar
   3    1   26 1
   4    2    3 ar
   5    2    7 1
   6    3    4 ar
   7    3   27 1
   8    4    5 ar
   9    5    6 ar
  10    5   28 1
  11    7    8 1
  12    8    9 ar
  13    8   13 ar
  14    9   10 ar
  15    9   25 1
  16   10   11 ar
  17   10   29 1
  18   11   12 ar
  19   11   30 1
  20   12   13 ar
  21   12   14 1
  22   13   31 1
  23   14   15 am
  24   14   32 1
  25   15   16 1
  26   15   17 2
  27   16   18 ar
  28   16   22 ar
  29   18   19 ar
  30   18   33 1
  31   19   20 ar
  32   19   34 1
  33   20   21 ar
  34   20   35 1
  35   21   22 ar
  36   21   23 1
  37   22   36 1
  38   23   24 3

#	End of record

