#	Name: ASD01916044
#	Creating user name:	WinNT
#	Creation time:	15. 06. 2019 20:06

#	Modifying user name:	WinNT
#	Modification time:	15. 06. 2019 20:06

#	Program:	/corina/corina34_cracker 3.40 0067  02.08.2006

@<TRIPOS>MOLECULE
ASD01916044
  47   49    0    0    0
SMALL
NO_CHARGES


@<TRIPOS>ATOM
   1 C1            -0.0464     1.4177    -0.4225 C.ar    
   2 C2            -0.0104     0.0254    -0.2598 C.ar    
   3 C3            -1.2081    -0.6522    -0.1407 C.ar    
   4 C4            -2.4044     0.0651    -0.1859 C.ar    
   5 C5            -3.6911    -0.6534    -0.0591 C.2     
   6 N6            -4.8371     0.0388     0.0960 N.am    
   7 O7            -3.7149    -1.8682    -0.0948 O.2     
   8 C8             1.1680     2.1656    -0.5509 C.1     
   9 C9             2.1636     2.7788    -0.6561 C.1     
  10 C10            3.3780     3.5267    -0.7845 C.ar    
  11 C11            3.3342     4.9141    -0.9464 C.ar    
  12 C12            5.7796     3.6015    -0.8673 C.ar    
  13 C13            4.5074     5.6291    -1.0695 C.ar    
  14 N14           -2.4033     1.3848    -0.3408 N.ar    
  15 C15           -1.2882     2.0659    -0.4635 C.ar    
  16 C16            4.6127     2.8731    -0.7428 C.ar    
  17 C17            5.7266     4.9768    -1.0338 C.ar    
  18 C18           -6.1365    -0.6456     0.0544 C.3     
  19 F19            6.9744     2.9719    -0.8330 F       
  20 C20           -4.8103     1.4912     0.3160 C.3     
  21 C21           -5.6105     1.8129     1.5822 C.3     
  22 C22           -7.0166     1.2220     1.4561 C.3     
  23 C23           -6.9190    -0.2956     1.3240 C.3     
  24 C24           -6.9207    -0.1832    -1.1753 C.3     
  25 C25           -5.9175    -2.1582    -0.0160 C.3     
  26 O26           -7.7762     1.5479     2.6218 O.3     
  27 H27            0.9304    -0.5040    -0.2287 H       
  28 H28           -1.2187    -1.7247    -0.0145 H       
  29 H29            2.3834     5.4256    -0.9753 H       
  30 H30            4.4739     6.7013    -1.1947 H       
  31 H31           -1.3276     3.1380    -0.5878 H       
  32 H32            4.6543     1.8018    -0.6131 H       
  33 H33            6.6417     5.5421    -1.1304 H       
  34 H34           -3.7796     1.8230     0.4410 H       
  35 H35           -5.2586     1.9985    -0.5382 H       
  36 H36           -5.1102     1.3800     2.4485 H       
  37 H37           -5.6797     2.8939     1.7040 H       
  38 H38           -7.5072     1.6368     0.5756 H       
  39 H39           -7.9207    -0.7201     1.2576 H       
  40 H40           -6.4071    -0.7045     2.1952 H       
  41 H41           -6.3565    -0.4218    -2.0769 H       
  42 H42           -7.8842    -0.6920    -1.2043 H       
  43 H43           -7.0800     0.8937    -1.1207 H       
  44 H44           -5.3200    -2.4790     0.8374 H       
  45 H45           -6.8816    -2.6663     0.0040 H       
  46 H46           -5.3948    -2.4071    -0.9395 H       
  47 H47           -7.8781     2.4977     2.7721 H       
@<TRIPOS>BOND
   1    1    2 ar
   2    1    8 1
   3    1   15 ar
   4    2    3 ar
   5    2   27 1
   6    3    4 ar
   7    3   28 1
   8    4   14 ar
   9    4    5 1
  10    5    6 am
  11    5    7 2
  12    6   20 1
  13    6   18 1
  14    8    9 3
  15    9   10 1
  16   10   11 ar
  17   10   16 ar
  18   11   13 ar
  19   11   29 1
  20   12   17 ar
  21   12   19 1
  22   12   16 ar
  23   13   17 ar
  24   13   30 1
  25   14   15 ar
  26   15   31 1
  27   16   32 1
  28   17   33 1
  29   18   24 1
  30   18   25 1
  31   18   23 1
  32   20   21 1
  33   20   34 1
  34   20   35 1
  35   21   22 1
  36   21   36 1
  37   21   37 1
  38   22   23 1
  39   22   26 1
  40   22   38 1
  41   23   39 1
  42   23   40 1
  43   24   41 1
  44   24   42 1
  45   24   43 1
  46   25   44 1
  47   25   45 1
  48   25   46 1
  49   26   47 1

#	End of record

