#	Name: ASD06170119
#	Creating user name:	WinNT
#	Creation time:	15. 06. 2019 21:05

#	Modifying user name:	WinNT
#	Modification time:	15. 06. 2019 21:05

#	Program:	/corina/corina34_cracker 3.40 0067  02.08.2006

@<TRIPOS>MOLECULE
ASD06170119
  67   71    0    0    0
SMALL
NO_CHARGES


@<TRIPOS>ATOM
   1 N1            -0.1215     1.6853    -0.6990 N.pl3   
   2 N2            -0.0464     0.3325    -0.3541 N.am    
   3 C3             1.2041    -0.1065    -0.6072 C.2     
   4 C4             1.9507     1.0434    -1.1416 C.2     
   5 C5             1.0689     2.1061    -1.1675 C.2     
   6 C6             3.3567     1.0584    -1.5631 C.2     
   7 O7             3.8533     2.0845    -1.9891 O.2     
   8 N8             4.0977    -0.0642    -1.4785 N.am    
   9 C9            -1.0921    -0.4367     0.1664 C.ar    
  10 C10           -2.3536    -0.3783    -0.4117 C.ar    
  11 C11           -3.3839    -1.1395     0.1044 C.ar    
  12 C12           -3.1608    -1.9588     1.1958 C.ar    
  13 C13           -1.9059    -2.0192     1.7737 C.ar    
  14 C14           -0.8699    -1.2649     1.2589 C.ar    
  15 O15            1.6307    -1.2320    -0.4283 O.2     
  16 C16           -1.3192     2.5197    -0.5749 C.3     
  17 C17           -1.2727     3.2746     0.7285 C.2     
  18 C18           -0.7234     4.4629     0.7780 C.2     
  19 C19           -1.8581     2.6626     1.9751 C.3     
  20 C20            1.3852     3.5013    -1.6412 C.3     
  21 C21            5.4076    -0.0775    -1.9732 C.ar    
  22 C22            6.1352     1.1034    -2.0443 C.ar    
  23 C23            7.4283     1.0891    -2.5324 C.ar    
  24 C24            7.9992    -0.1067    -2.9514 C.ar    
  25 C25            7.2718    -1.2849    -2.8800 C.ar    
  26 C26            5.9812    -1.2721    -2.3873 C.ar    
  27 O27            9.2713    -0.1212    -3.4321 O.3     
  28 N28           12.3467     0.3443    -0.7240 N.ar    
  29 C29           11.1070     0.2463    -0.3045 C.ar    
  30 C30           10.0457     0.0889    -1.1866 C.ar    
  31 C31           10.2874     0.0323    -2.5482 C.ar    
  32 C32           11.6262     0.1388    -2.9887 C.ar    
  33 C33           11.9491     0.0905    -4.3526 C.ar    
  34 C34           13.2478     0.1965    -4.7454 C.ar    
  35 C35           14.2691     0.3535    -3.8039 C.ar    
  36 C36           13.9844     0.4040    -2.4581 C.ar    
  37 C37           12.6528     0.2976    -2.0260 C.ar    
  38 O38           15.5573     0.4569    -4.2219 O.3     
  39 C39           15.7891     0.3969    -5.6308 C.3     
  40 F40            8.1369     2.2373    -2.6024 F       
  41 H41            3.7235    -0.8630    -1.0748 H       
  42 H42           -2.5287     0.2619    -1.2637 H       
  43 H43           -4.3651    -1.0946    -0.3447 H       
  44 H44           -3.9683    -2.5526     1.5980 H       
  45 H45           -1.7348    -2.6601     2.6260 H       
  46 H46            0.1110    -1.3156     1.7082 H       
  47 H47           -1.3566     3.2271    -1.4033 H       
  48 H48           -2.2066     1.8871    -0.5969 H       
  49 H49           -0.6901     5.0039     1.7122 H       
  50 H50           -0.3039     4.9015    -0.1153 H       
  51 H51           -2.3451     1.7206     1.7231 H       
  52 H52           -1.0628     2.4786     2.6974 H       
  53 H53           -2.5897     3.3459     2.4063 H       
  54 H54            1.7450     4.0970    -0.8023 H       
  55 H55            2.1545     3.4576    -2.4121 H       
  56 H56            0.4849     3.9584    -2.0518 H       
  57 H57            5.6908     2.0323    -1.7188 H       
  58 H58            7.7159    -2.2140    -3.2057 H       
  59 H59            5.4168    -2.1910    -2.3282 H       
  60 H60           10.9065     0.2892     0.7559 H       
  61 H61            9.0360     0.0104    -0.8114 H       
  62 H62           11.1690    -0.0308    -5.0896 H       
  63 H63           13.4922     0.1584    -5.7967 H       
  64 H64           14.7808     0.5249    -1.7387 H       
  65 H65           16.8570     0.4914    -5.8277 H       
  66 H66           15.4314    -0.5574    -6.0175 H       
  67 H67           15.2556     1.2108    -6.1217 H       
@<TRIPOS>BOND
   1    1    2 1
   2    1    5 1
   3    1   16 1
   4    2    3 am
   5    2    9 1
   6    3    4 1
   7    3   15 2
   8    4    5 2
   9    4    6 1
  10    5   20 1
  11    6    7 2
  12    6    8 am
  13    8   21 1
  14    8   41 1
  15    9   10 ar
  16    9   14 ar
  17   10   11 ar
  18   10   42 1
  19   11   12 ar
  20   11   43 1
  21   12   13 ar
  22   12   44 1
  23   13   14 ar
  24   13   45 1
  25   14   46 1
  26   16   17 1
  27   16   47 1
  28   16   48 1
  29   17   18 2
  30   17   19 1
  31   18   49 1
  32   18   50 1
  33   19   51 1
  34   19   52 1
  35   19   53 1
  36   20   54 1
  37   20   55 1
  38   20   56 1
  39   21   22 ar
  40   21   26 ar
  41   22   23 ar
  42   22   57 1
  43   23   24 ar
  44   23   40 1
  45   24   25 ar
  46   24   27 1
  47   25   26 ar
  48   25   58 1
  49   26   59 1
  50   27   31 1
  51   28   29 ar
  52   28   37 ar
  53   29   30 ar
  54   29   60 1
  55   30   31 ar
  56   30   61 1
  57   31   32 ar
  58   32   33 ar
  59   32   37 ar
  60   33   34 ar
  61   33   62 1
  62   34   35 ar
  63   34   63 1
  64   35   36 ar
  65   35   38 1
  66   36   37 ar
  67   36   64 1
  68   38   39 1
  69   39   65 1
  70   39   66 1
  71   39   67 1

#	End of record

