#	Name: ASD01918018
#	Creating user name:	WinNT
#	Creation time:	15. 06. 2019 20:10

#	Modifying user name:	WinNT
#	Modification time:	15. 06. 2019 20:10

#	Program:	/corina/corina34_cracker 3.40 0067  02.08.2006

@<TRIPOS>MOLECULE
ASD01918018
  40   43    0    0    0
SMALL
NO_CHARGES


@<TRIPOS>ATOM
   1 N1             4.8223    -0.4081    -2.1626 N.ar    
   2 C2             5.2887     0.2931    -3.1771 C.ar    
   3 C3             5.1770     1.6710    -3.1987 C.ar    
   4 C4             4.5651     2.3167    -2.1368 C.ar    
   5 C5             4.0838     1.5458    -1.0828 C.ar    
   6 C6             4.2335     0.1675    -1.1330 C.ar    
   7 O7             3.4766     2.1348    -0.0193 O.3     
   8 C8             3.4582     3.4938     0.0335 C.2     
   9 N9             2.2087     5.5075    -0.0265 N.pl3   
  10 C10            2.2758     4.1517    -0.0741 C.2     
  11 C11            4.6584     4.1942     0.2038 C.2     
  12 C12            4.6314     5.5834     0.2572 C.2     
  13 C13            3.3393     6.2575     0.1321 C.2     
  14 C14            5.8720     6.3563     0.4357 C.2     
  15 N15            5.8262     7.7024     0.4852 N.am    
  16 C16            6.9962     8.4313     0.6535 C.2     
  17 O17            6.9382     5.7799     0.5385 O.2     
  18 N18            1.1464     6.4194    -0.1098 N.2     
  19 C19            1.6620     7.6217    -0.0104 C.2     
  20 N20            2.9771     7.5306     0.1412 N.2     
  21 C21            5.7151     2.4613    -4.3636 C.3     
  22 S22            8.5581     7.7539     0.8103 S.3     
  23 C23            9.2539     9.3656     0.9582 C.2     
  24 C24            8.2614    10.2538     0.8773 C.2     
  25 N25            7.0638     9.7249     0.7091 N.2     
  26 C26            8.4899    11.7408     0.9654 C.3     
  27 H27            5.7648    -0.2157    -4.0023 H       
  28 H28            4.4644     3.3919    -2.1269 H       
  29 H29            3.8636    -0.4403    -0.3205 H       
  30 H30            1.3663     3.5833    -0.2009 H       
  31 H31            5.5939     3.6619     0.2929 H       
  32 H32            4.9759     8.1620     0.4032 H       
  33 H33            1.1009     8.5441    -0.0391 H       
  34 H34            4.9368     2.5708    -5.1188 H       
  35 H35            6.0291     3.4469    -4.0199 H       
  36 H36            6.5685     1.9378    -4.7946 H       
  37 H37           10.3009     9.5947     1.0912 H       
  38 H38            8.6657    12.1412    -0.0330 H       
  39 H39            7.6112    12.2184     1.3989 H       
  40 H40            9.3581    11.9383     1.5941 H       
@<TRIPOS>BOND
   1    1    2 ar
   2    1    6 ar
   3    2    3 ar
   4    2   27 1
   5    3    4 ar
   6    3   21 1
   7    4    5 ar
   8    4   28 1
   9    5    6 ar
  10    5    7 1
  11    6   29 1
  12    7    8 1
  13    8   11 1
  14    8   10 2
  15    9   10 1
  16    9   18 1
  17    9   13 1
  18   10   30 1
  19   11   12 2
  20   11   31 1
  21   12   13 1
  22   12   14 1
  23   13   20 2
  24   14   15 am
  25   14   17 2
  26   15   16 1
  27   15   32 1
  28   16   22 1
  29   16   25 2
  30   18   19 2
  31   19   20 1
  32   19   33 1
  33   21   34 1
  34   21   35 1
  35   21   36 1
  36   22   23 1
  37   23   24 2
  38   23   37 1
  39   24   25 1
  40   24   26 1
  41   26   38 1
  42   26   39 1
  43   26   40 1

#	End of record

