#	Name: ASD01152536
#	Creating user name:	WinNT
#	Creation time:	15. 06. 2019 19:06

#	Modifying user name:	WinNT
#	Modification time:	15. 06. 2019 19:06

#	Program:	/corina/corina34_cracker 3.40 0067  02.08.2006

@<TRIPOS>MOLECULE
ASD01152536
  50   52    0    0    0
SMALL
NO_CHARGES


@<TRIPOS>ATOM
   1 C1             0.1167     1.1519    -0.7092 C.2     
   2 N2             0.0222    -0.1483    -0.6273 N.2     
   3 N3            -1.1175    -0.7676    -0.1146 N.am    
   4 C4            -2.2571    -0.0984     0.1262 C.2     
   5 C5            -2.3864     1.3536    -0.2699 C.3     
   6 C6            -1.0009     1.9717    -0.2168 C.2     
   7 C7            -2.9513     1.4554    -1.6882 C.3     
   8 O8            -0.8261     3.0958     0.2062 O.2     
   9 C9            -1.0723    -2.1395     0.1591 C.ar    
  10 O10           -3.1863    -0.6625     0.6636 O.2     
  11 C11           -3.1924     2.9031    -2.0302 C.ar    
  12 C12           -0.0092    -2.6698     0.8764 C.ar    
  13 C13           -2.0947    -2.9707    -0.2823 C.ar    
  14 C14           -2.0513    -4.3247    -0.0123 C.ar    
  15 C15           -0.9912    -4.8572     0.6980 C.ar    
  16 C16            0.0321    -4.0300     1.1463 C.ar    
  17 C17           -2.1574     3.6791    -2.5295 C.ar    
  18 C18           -4.4466     3.4557    -1.8513 C.ar    
  19 C19           -4.6707     4.7830    -2.1646 C.ar    
  20 C20           -2.3818     5.0130    -2.8440 C.ar    
  21 Cl21          -0.9411    -6.5594     1.0355 Cl      
  22 F22           -1.3757     5.7718    -3.3312 F       
  23 C23           -3.6388     5.5639    -2.6583 C.ar    
  24 F24           -3.8599     6.8612    -2.9639 F       
  25 O25            1.2265     1.7351    -1.2331 O.3     
  26 C26            2.2667     0.8641    -1.6819 C.3     
  27 N27            1.1024    -4.5686     1.8699 N.am    
  28 C28            1.7658    -3.8050     2.7606 C.2     
  29 O29            1.4963    -2.6275     2.8695 O.2     
  30 C30            2.8423    -4.4144     3.6214 C.3     
  31 O31           -0.9247     3.1349    -2.7105 O.3     
  32 C32           -0.6581     2.5412    -3.9827 C.3     
  33 H33           -3.0454     1.8695     0.4285 H       
  34 H34           -2.2389     1.0290    -2.3945 H       
  35 H35           -3.8917     0.9071    -1.7450 H       
  36 H36            0.7845    -2.0250     1.2236 H       
  37 H37           -2.9243    -2.5575    -0.8367 H       
  38 H38           -2.8471    -4.9686    -0.3564 H       
  39 H39           -5.2531     2.8491    -1.4665 H       
  40 H40           -5.6519     5.2119    -2.0245 H       
  41 H41            2.6201     0.2597    -0.8465 H       
  42 H42            1.8813     0.2114    -2.4652 H       
  43 H43            3.0921     1.4568    -2.0763 H       
  44 H44            1.3668    -5.4914     1.7302 H       
  45 H45            2.9416    -5.4735     3.3835 H       
  46 H46            3.7891    -3.9089     3.4312 H       
  47 H47            2.5748    -4.3015     4.6720 H       
  48 H48           -1.3650     1.7308    -4.1607 H       
  49 H49           -0.7637     3.2937    -4.7642 H       
  50 H50            0.3577     2.1462    -3.9936 H       
@<TRIPOS>BOND
   1    1    2 2
   2    1   25 1
   3    1    6 1
   4    2    3 1
   5    3    4 am
   6    3    9 1
   7    4    5 1
   8    4   10 2
   9    5    6 1
  10    5    7 1
  11    5   33 1
  12    6    8 2
  13    7   11 1
  14    7   34 1
  15    7   35 1
  16    9   12 ar
  17    9   13 ar
  18   11   17 ar
  19   11   18 ar
  20   12   16 ar
  21   12   36 1
  22   13   14 ar
  23   13   37 1
  24   14   15 ar
  25   14   38 1
  26   15   16 ar
  27   15   21 1
  28   16   27 1
  29   17   31 1
  30   17   20 ar
  31   18   19 ar
  32   18   39 1
  33   19   23 ar
  34   19   40 1
  35   20   22 1
  36   20   23 ar
  37   23   24 1
  38   25   26 1
  39   26   41 1
  40   26   42 1
  41   26   43 1
  42   27   28 am
  43   27   44 1
  44   28   29 2
  45   28   30 1
  46   30   45 1
  47   30   46 1
  48   30   47 1
  49   31   32 1
  50   32   48 1
  51   32   49 1
  52   32   50 1

#	End of record

