#	Name: ASD01150383
#	Creating user name:	WinNT
#	Creation time:	15. 06. 2019 19:04

#	Modifying user name:	WinNT
#	Modification time:	15. 06. 2019 19:04

#	Program:	/corina/corina34_cracker 3.40 0067  02.08.2006

@<TRIPOS>MOLECULE
ASD01150383
  42   44    0    0    0
SMALL
NO_CHARGES


@<TRIPOS>ATOM
   1 C1             0.3253     1.3777     0.8386 C.ar    
   2 C2             0.3440    -0.0035     0.8318 C.ar    
   3 C3             1.2084    -0.6817    -0.0062 C.ar    
   4 C4             2.0619     0.0242    -0.8451 C.ar    
   5 C5             2.0455     1.4121    -0.8407 C.ar    
   6 C6             1.1763     2.0898     0.0021 C.ar    
   7 N7             1.1563     3.4893     0.0093 N.am    
   8 C8            -0.0193     4.1366    -0.0780 C.2     
   9 N9            -0.0721     5.4818    -0.0741 N.am    
  10 C10            1.0650     6.2020     0.0188 C.2     
  11 C11            2.3485     5.5014     0.1146 C.2     
  12 N12            2.3599     4.1968     0.1130 N.2     
  13 O13            1.0252     7.4185     0.0225 O.2     
  14 C14           -1.3649     6.1640    -0.1712 C.3     
  15 O15           -1.0500     3.4973    -0.1621 O.2     
  16 C16           -1.9191     6.3895     1.2119 C.ar    
  17 C17           -1.6178     7.5525     1.8959 C.ar    
  18 C18           -2.1257     7.7598     3.1644 C.ar    
  19 C19           -2.9359     6.8032     3.7497 C.ar    
  20 C20           -3.2371     5.6395     3.0647 C.ar    
  21 C21           -2.7332     5.4358     1.7940 C.ar    
  22 N22            2.9357    -0.6620    -1.6916 N.am    
  23 S23            2.3927    -1.9584    -2.5673 S.o2    
  24 C24            1.1730    -1.2537    -3.7102 C.3     
  25 Cl25          -3.5739     7.0626     5.3433 Cl      
  26 O26            3.5394    -2.4073    -3.2764 O.2     
  27 O27            1.7545    -2.7880    -1.6062 O.2     
  28 H28           -0.3546     1.9047     1.4916 H       
  29 H29           -0.3182    -0.5545     1.4832 H       
  30 H30            1.2208    -1.7616    -0.0088 H       
  31 H31            2.7082     1.9632    -1.4915 H       
  32 H32            3.2715     6.0570     0.1895 H       
  33 H33           -1.2326     7.1239    -0.6706 H       
  34 H34           -2.0582     5.5487    -0.7446 H       
  35 H35           -0.9850     8.2990     1.4390 H       
  36 H36           -1.8900     8.6682     3.6988 H       
  37 H37           -3.8696     4.8924     3.5211 H       
  38 H38           -2.9682     4.5275     1.2591 H       
  39 H39            3.8605    -0.3792    -1.7665 H       
  40 H40            1.6558    -0.5088    -4.3428 H       
  41 H41            0.7588    -2.0462    -4.3335 H       
  42 H42            0.3715    -0.7827    -3.1411 H       
@<TRIPOS>BOND
   1    1    2 ar
   2    1    6 ar
   3    1   28 1
   4    2    3 ar
   5    2   29 1
   6    3    4 ar
   7    3   30 1
   8    4    5 ar
   9    4   22 1
  10    5    6 ar
  11    5   31 1
  12    6    7 1
  13    7    8 am
  14    7   12 1
  15    8    9 am
  16    8   15 2
  17    9   10 am
  18    9   14 1
  19   10   11 1
  20   10   13 2
  21   11   12 2
  22   11   32 1
  23   14   16 1
  24   14   33 1
  25   14   34 1
  26   16   17 ar
  27   16   21 ar
  28   17   18 ar
  29   17   35 1
  30   18   19 ar
  31   18   36 1
  32   19   20 ar
  33   19   25 1
  34   20   21 ar
  35   20   37 1
  36   21   38 1
  37   22   23 am
  38   22   39 1
  39   23   24 1
  40   23   26 2
  41   23   27 2
  42   24   40 1
  43   24   41 1
  44   24   42 1

#	End of record

