#	Name: ASD01200521
#	Creating user name:	WinNT
#	Creation time:	15. 06. 2019 19:09

#	Modifying user name:	WinNT
#	Modification time:	15. 06. 2019 19:09

#	Program:	/corina/corina34_cracker 3.40 0067  02.08.2006

@<TRIPOS>MOLECULE
ASD01200521
  34   35    0    0    0
SMALL
NO_CHARGES


@<TRIPOS>ATOM
   1 N1             2.2300     1.3390     0.5642 N.ar    
   2 C2             2.2412     0.0211     0.5641 C.ar    
   3 C3             1.2052    -0.6959    -0.0208 C.ar    
   4 C4             0.1508    -0.0017    -0.6088 C.ar    
   5 C5             0.1804     1.3832    -0.5851 C.ar    
   6 C6             1.2466     2.0257     0.0159 C.ar    
   7 N7             1.2210    -2.0945    -0.0197 N.am    
   8 C8             0.0666    -2.7814     0.0901 C.2     
   9 O9            -0.9778    -2.1886     0.2863 O.2     
  10 N10            1.1775    -5.0341    -0.2476 N.pl3   
  11 C11            0.0692    -4.2448    -0.0270 C.2     
  12 C12           -1.0235    -5.0537     0.0642 C.2     
  13 C13           -0.5689    -6.3836    -0.1062 C.2     
  14 C14            0.8028    -6.3209    -0.2965 C.2     
  15 C15            1.7169    -7.4979    -0.5202 C.3     
  16 C16           -2.4458    -4.6159     0.3016 C.3     
  17 C17           -1.3923    -7.5965    -0.0854 C.2     
  18 O18           -1.9545    -7.9654    -1.0952 O.2     
  19 C19           -1.5402    -8.3850     1.1903 C.3     
  20 H20            3.0641    -0.5066     1.0231 H       
  21 H21           -0.6694    -0.5298    -1.0721 H       
  22 H22           -0.6201     1.9543    -1.0317 H       
  23 H23            1.2745     3.1051     0.0371 H       
  24 H24            2.0628    -2.5701    -0.0980 H       
  25 H25            2.0853    -4.7095    -0.3547 H       
  26 H26            2.0106    -7.9179     0.4418 H       
  27 H27            1.1960    -8.2568    -1.1041 H       
  28 H28            2.6054    -7.1705    -1.0602 H       
  29 H29           -2.9333    -4.4301    -0.6555 H       
  30 H30           -2.9826    -5.3992     0.8367 H       
  31 H31           -2.4504    -3.7017     0.8951 H       
  32 H32           -1.0417    -7.8574     2.0035 H       
  33 H33           -2.5982    -8.4993     1.4262 H       
  34 H34           -1.0877    -9.3685     1.0641 H       
@<TRIPOS>BOND
   1    1    2 ar
   2    1    6 ar
   3    2    3 ar
   4    2   20 1
   5    3    4 ar
   6    3    7 1
   7    4    5 ar
   8    4   21 1
   9    5    6 ar
  10    5   22 1
  11    6   23 1
  12    7    8 am
  13    7   24 1
  14    8    9 2
  15    8   11 1
  16   10   11 1
  17   10   14 1
  18   10   25 1
  19   11   12 2
  20   12   13 1
  21   12   16 1
  22   13   14 2
  23   13   17 1
  24   14   15 1
  25   15   26 1
  26   15   27 1
  27   15   28 1
  28   16   29 1
  29   16   30 1
  30   16   31 1
  31   17   18 2
  32   17   19 1
  33   19   32 1
  34   19   33 1
  35   19   34 1

#	End of record

