#	Name: ASD01882522
#	Creating user name:	WinNT
#	Creation time:	15. 06. 2019 19:44

#	Modifying user name:	WinNT
#	Modification time:	15. 06. 2019 19:44

#	Program:	/corina/corina34_cracker 3.40 0067  02.08.2006

@<TRIPOS>MOLECULE
ASD01882522
  50   54    0    0    0
SMALL
NO_CHARGES


@<TRIPOS>ATOM
   1 C1            -0.0170     1.4050     0.0098 C.2     
   2 C2             0.0021    -0.0041     0.0020 C.2     
   3 C3             1.1991    -0.6521    -0.0129 C.2     
   4 C4             2.3930     0.0893    -0.0203 C.2     
   5 C5             2.3588     1.4383    -0.0123 C.2     
   6 N6             1.1665     2.1012     0.0022 N.pl3   
   7 N7            -0.4824     3.4846     0.0225 N.2     
   8 N8            -0.9895     2.3019     0.0186 N.2     
   9 C9             0.8240     3.4179     0.0121 C.2     
  10 C10            1.7759     4.5862     0.0100 C.3     
  11 C11            2.0856     4.9891    -1.4332 C.3     
  12 C12            2.9459     6.2357    -1.6495 C.3     
  13 C13            3.5319     4.8469    -1.9116 C.3     
  14 C14            1.2438    -2.1584    -0.0209 C.3     
  15 N15            1.3656    -2.6373    -1.4043 N.3     
  16 C16            1.6496    -4.0787    -1.4395 C.3     
  17 C17            1.6899    -4.5526    -2.8943 C.3     
  18 N18            2.7183    -3.7981    -3.6242 N.3     
  19 C19            2.4343    -2.3567    -3.5890 C.3     
  20 C20            2.3940    -1.8828    -2.1342 C.3     
  21 C21            2.8336    -4.2515    -4.9338 C.ar    
  22 C22            3.7582    -3.6602    -5.7889 C.ar    
  23 C23            3.8631    -4.1209    -7.0887 C.ar    
  24 C24            3.0359    -5.1623    -7.4918 C.ar    
  25 C25            2.1403    -5.7024    -6.5895 C.ar    
  26 N26            2.0663    -5.2452    -5.3536 N.ar    
  27 Cl27           3.1267    -5.7775    -9.1126 Cl      
  28 Cl28          -1.4832    -0.9027     0.0120 Cl      
  29 H29            3.3434    -0.4236    -0.0322 H       
  30 H30            3.2826     1.9976    -0.0178 H       
  31 H31            1.3200     5.4273     0.5322 H       
  32 H32            2.6998     4.3030     0.5143 H       
  33 H33            1.2942     4.7920    -2.1564 H       
  34 H34            2.7208     6.8585    -2.5153 H       
  35 H35            3.2913     6.7687    -0.7637 H       
  36 H36            4.2628     4.4662    -1.1982 H       
  37 H37            3.6923     4.5560    -2.9497 H       
  38 H38            2.1017    -2.4995     0.5585 H       
  39 H39            0.3279    -2.5514     0.4204 H       
  40 H40            2.6131    -4.2711    -0.9676 H       
  41 H41            0.8677    -4.6166    -0.9034 H       
  42 H42            1.9291    -5.6156    -2.9240 H       
  43 H43            0.7180    -4.3851    -3.3584 H       
  44 H44            3.2161    -1.8187    -4.1251 H       
  45 H45            1.4708    -2.1642    -4.0610 H       
  46 H46            2.1548    -0.8198    -2.1045 H       
  47 H47            3.3659    -2.0503    -1.6701 H       
  48 H48            4.3854    -2.8522    -5.4424 H       
  49 H49            4.5715    -3.6810    -7.7750 H       
  50 H50            1.4951    -6.5116    -6.8981 H       
@<TRIPOS>BOND
   1    1    2 1
   2    1    6 1
   3    1    8 2
   4    2    3 2
   5    2   28 1
   6    3    4 1
   7    3   14 1
   8    4    5 2
   9    4   29 1
  10    5    6 1
  11    5   30 1
  12    6    9 1
  13    7    8 1
  14    7    9 2
  15    9   10 1
  16   10   11 1
  17   10   31 1
  18   10   32 1
  19   11   12 1
  20   11   13 1
  21   11   33 1
  22   12   13 1
  23   12   34 1
  24   12   35 1
  25   13   36 1
  26   13   37 1
  27   14   15 1
  28   14   38 1
  29   14   39 1
  30   15   16 1
  31   15   20 1
  32   16   17 1
  33   16   40 1
  34   16   41 1
  35   17   18 1
  36   17   42 1
  37   17   43 1
  38   18   19 1
  39   18   21 1
  40   19   20 1
  41   19   44 1
  42   19   45 1
  43   20   46 1
  44   20   47 1
  45   21   22 ar
  46   21   26 ar
  47   22   23 ar
  48   22   48 1
  49   23   24 ar
  50   23   49 1
  51   24   25 ar
  52   24   27 1
  53   25   26 ar
  54   25   50 1

#	End of record

