#	Name: ASD03331015
#	Creating user name:	WinNT
#	Creation time:	15. 06. 2019 20:38

#	Modifying user name:	WinNT
#	Modification time:	15. 06. 2019 20:38

#	Program:	/corina/corina34_cracker 3.40 0067  02.08.2006

@<TRIPOS>MOLECULE
ASD03331015
  55   58    0    0    0
SMALL
NO_CHARGES


@<TRIPOS>ATOM
   1 N1            -0.0210     1.4725     0.1561 N.am    
   2 C2            -0.0020    -0.0016     0.1996 C.3     
   3 C3             1.3494    -0.4541    -0.3838 C.3     
   4 C4             2.0980     0.8551    -0.7248 C.3     
   5 C5             1.3974     1.8983     0.1818 C.3     
   6 C6             1.1336    -1.2735    -1.6301 C.2     
   7 O7             1.5795    -0.8919    -2.6915 O.2     
   8 N8             0.4450    -2.4302    -1.5652 N.am    
   9 C9             0.2352    -3.2267    -2.7767 C.3     
  10 C10           -1.1067     2.2690     0.0987 C.2     
  11 O11           -2.2198     1.7792     0.0779 O.2     
  12 N12           -1.3688     5.8793    -0.0302 N.pl3   
  13 C13           -1.9498     4.6501     0.0027 C.2     
  14 C14           -3.4316     4.3791    -0.0108 C.3     
  15 N15           -4.0595     5.1849    -1.0696 N.3     
  16 C16           -4.4540     6.5031    -0.5693 C.3     
  17 C17           -3.4744     7.0008     0.4896 C.3     
  18 C18           -2.0810     7.1567    -0.1256 C.3     
  19 C19           -0.0181     5.6946     0.0295 C.2     
  20 N20            0.2266     4.4060     0.0788 N.2     
  21 C21           -0.9452     3.7331     0.0611 C.2     
  22 C22           -5.2064     4.4800    -1.6574 C.3     
  23 C23            0.9998     6.7671     0.0373 C.ar    
  24 C24            2.0431     6.7372     0.9670 C.ar    
  25 C25            2.9914     7.7420     0.9690 C.ar    
  26 C26            2.9091     8.7768     0.0519 C.ar    
  27 C27            1.8754     8.8108    -0.8723 C.ar    
  28 C28            0.9258     7.8095    -0.8871 C.ar    
  29 F29            3.8390     9.7569     0.0579 F       
  30 F30            2.1236     5.7284     1.8620 F       
  31 Cl31           1.7797    10.1123    -2.0171 Cl      
  32 H32           -0.0946    -0.3438     1.2304 H       
  33 H33           -0.8185    -0.4013    -0.4017 H       
  34 H34            1.9080    -1.0281     0.3556 H       
  35 H35            3.1551     0.7723    -0.4723 H       
  36 H36            1.9701     1.1101    -1.7768 H       
  37 H37            1.5055     2.9011    -0.2314 H       
  38 H38            1.7939     1.8543     1.1961 H       
  39 H39            0.0884    -2.7354    -0.7163 H       
  40 H40           -0.3381    -4.1202    -2.5294 H       
  41 H41           -0.3125    -2.6351    -3.5102 H       
  42 H42            1.2001    -3.5176    -3.1920 H       
  43 H43           -3.6067     3.3211    -0.2059 H       
  44 H44           -3.8601     4.6485     0.9546 H       
  45 H45           -4.4741     7.2097    -1.3989 H       
  46 H46           -5.4504     6.4368    -0.1324 H       
  47 H47           -3.8119     7.9644     0.8712 H       
  48 H48           -3.4306     6.2830     1.3087 H       
  49 H49           -1.5274     7.9239     0.4157 H       
  50 H50           -2.1751     7.4442    -1.1728 H       
  51 H51           -5.9473     4.2824    -0.8828 H       
  52 H52           -5.6519     5.0978    -2.4371 H       
  53 H53           -4.8711     3.5367    -2.0885 H       
  54 H54            3.7980     7.7206     1.6869 H       
  55 H55            0.1242     7.8349    -1.6105 H       
@<TRIPOS>BOND
   1    1    2 1
   2    1    5 1
   3    1   10 am
   4    2    3 1
   5    2   32 1
   6    2   33 1
   7    3    4 1
   8    3    6 1
   9    3   34 1
  10    4    5 1
  11    4   35 1
  12    4   36 1
  13    5   37 1
  14    5   38 1
  15    6    7 2
  16    6    8 am
  17    8    9 1
  18    8   39 1
  19    9   40 1
  20    9   41 1
  21    9   42 1
  22   10   11 2
  23   10   21 1
  24   12   13 1
  25   12   18 1
  26   12   19 1
  27   13   14 1
  28   13   21 2
  29   14   15 1
  30   14   43 1
  31   14   44 1
  32   15   16 1
  33   15   22 1
  34   16   17 1
  35   16   45 1
  36   16   46 1
  37   17   18 1
  38   17   47 1
  39   17   48 1
  40   18   49 1
  41   18   50 1
  42   19   20 2
  43   19   23 1
  44   20   21 1
  45   22   51 1
  46   22   52 1
  47   22   53 1
  48   23   24 ar
  49   23   28 ar
  50   24   25 ar
  51   24   30 1
  52   25   26 ar
  53   25   54 1
  54   26   27 ar
  55   26   29 1
  56   27   28 ar
  57   27   31 1
  58   28   55 1

#	End of record

