#	Name: ASD01912284
#	Creating user name:	WinNT
#	Creation time:	15. 06. 2019 19:59

#	Modifying user name:	WinNT
#	Modification time:	15. 06. 2019 19:59

#	Program:	/corina/corina34_cracker 3.40 0067  02.08.2006

@<TRIPOS>MOLECULE
ASD01912284
  47   49    0    0    0
SMALL
NO_CHARGES


@<TRIPOS>ATOM
   1 C1             2.9114     0.0277    -0.4819 C.ar    
   2 C2             3.4010    -1.2650    -0.4272 C.ar    
   3 C3             4.7589    -1.4725    -0.2259 C.ar    
   4 C4             5.5824    -0.3701    -0.0858 C.ar    
   5 C5             5.0216     0.9083    -0.1514 C.ar    
   6 N6             3.7147     1.0622    -0.3458 N.ar    
   7 C7             5.8597     2.0606    -0.0083 C.1     
   8 C8             6.5468     3.0053     0.1090 C.1     
   9 C9             7.3849     4.1575     0.2520 C.2     
  10 N10            6.0191     7.7014    -1.0248 N.am    
  11 C11            7.4683     7.5300    -0.8604 C.3     
  12 C12            7.7235     6.6083     0.3390 C.3     
  13 C13            6.8551     5.3784     0.1902 C.2     
  14 C14            5.3704     5.5685    -0.0299 C.3     
  15 C15            5.1742     6.5162    -1.2200 C.3     
  16 S16            5.3446     9.2133    -0.9838 S.o2    
  17 O17            3.9667     9.0301    -0.6888 O.2     
  18 O18            6.2087    10.0168    -0.1921 O.2     
  19 C19            5.4211     9.8631    -2.6198 C.ar    
  20 C20            4.9512    11.1370    -2.8803 C.ar    
  21 C21            5.0112    11.6467    -4.1636 C.ar    
  22 C22            5.5414    10.8828    -5.1868 C.ar    
  23 C23            6.0119     9.6096    -4.9262 C.ar    
  24 C24            5.9559     9.1014    -3.6416 C.ar    
  25 N25            4.3836    11.9549    -1.7849 N.pl3   
  26 O26            4.0669    13.1128    -1.9907 O.2     
  27 O27            4.2331    11.4698    -0.6778 O.2     
  28 C28            1.4387     0.2553    -0.7066 C.3     
  29 H29            2.7325    -2.1057    -0.5398 H       
  30 H30            5.1633    -2.4728    -0.1794 H       
  31 H31            6.6434    -0.4954     0.0724 H       
  32 H32            8.4464     4.0369     0.4100 H       
  33 H33            7.8878     7.0820    -1.7612 H       
  34 H34            7.9330     8.4996    -0.6815 H       
  35 H35            8.7733     6.3159     0.3603 H       
  36 H36            7.4682     7.1284     1.2623 H       
  37 H37            4.9053     4.6067    -0.2461 H       
  38 H38            4.9196     6.0022     0.8628 H       
  39 H39            4.1285     6.8185    -1.2779 H       
  40 H40            5.4619     6.0101    -2.1415 H       
  41 H41            4.6435    12.6416    -4.3673 H       
  42 H42            5.5876    11.2808    -6.1897 H       
  43 H43            6.4258     9.0128    -5.7255 H       
  44 H44            6.3270     8.1080    -3.4373 H       
  45 H45            0.9262     0.2935     0.2546 H       
  46 H46            1.2931     1.1982    -1.2337 H       
  47 H47            1.0318    -0.5611    -1.3032 H       
@<TRIPOS>BOND
   1    1    2 ar
   2    1    6 ar
   3    1   28 1
   4    2    3 ar
   5    2   29 1
   6    3    4 ar
   7    3   30 1
   8    4    5 ar
   9    4   31 1
  10    5    6 ar
  11    5    7 1
  12    7    8 3
  13    8    9 1
  14    9   13 2
  15    9   32 1
  16   10   11 1
  17   10   15 1
  18   10   16 am
  19   11   12 1
  20   11   33 1
  21   11   34 1
  22   12   13 1
  23   12   35 1
  24   12   36 1
  25   13   14 1
  26   14   15 1
  27   14   37 1
  28   14   38 1
  29   15   39 1
  30   15   40 1
  31   16   17 2
  32   16   18 2
  33   16   19 1
  34   19   20 ar
  35   19   24 ar
  36   20   21 ar
  37   20   25 1
  38   21   22 ar
  39   21   41 1
  40   22   23 ar
  41   22   42 1
  42   23   24 ar
  43   23   43 1
  44   24   44 1
  45   25   26 2
  46   25   27 2
  47   28   45 1
  48   28   46 1
  49   28   47 1

#	End of record

