#	Name: ASD01140028
#	Creating user name:	WinNT
#	Creation time:	15. 06. 2019 18:59

#	Modifying user name:	WinNT
#	Modification time:	15. 06. 2019 18:59

#	Program:	/corina/corina34_cracker 3.40 0067  02.08.2006

@<TRIPOS>MOLECULE
ASD01140028
  33   35    0    0    0
SMALL
NO_CHARGES


@<TRIPOS>ATOM
   1 N1            -0.1434     1.0301    -0.0960 N.am    
   2 C2             0.1089    -0.2721     0.0148 C.2     
   3 C3             1.5151    -0.8066     0.0293 C.3     
   4 N4             2.1485    -0.5075    -1.2544 N.2     
   5 C5             2.3565     0.7003    -1.6439 C.2     
   6 C6             2.0048     1.9047    -0.8756 C.ar    
   7 C7             0.8187     2.0271    -0.1538 C.ar    
   8 C8             2.9187     2.9693    -0.8812 C.ar    
   9 C9             2.6517     4.1237    -0.1799 C.ar    
  10 C10            1.4730     4.2407     0.5395 C.ar    
  11 C11            0.5657     3.2041     0.5530 C.ar    
  12 O12           -0.8188    -1.0478     0.1069 O.2     
  13 C13            2.9988     0.8933    -2.9649 C.ar    
  14 C14            3.7843    -0.1188    -3.5160 C.ar    
  15 C15            4.3800     0.0669    -4.7467 C.ar    
  16 C16            4.1993     1.2541    -5.4337 C.ar    
  17 C17            3.4217     2.2619    -4.8920 C.ar    
  18 C18            2.8158     2.0856    -3.6649 C.ar    
  19 C19           -1.5475     1.4419    -0.1684 C.3     
  20 Cl20           3.7919     5.4326    -0.1965 Cl      
  21 H21            2.0777    -0.3322     0.8333 H       
  22 H22            1.4940    -1.8854     0.1833 H       
  23 H23            3.8390     2.8824    -1.4397 H       
  24 H24            1.2656     5.1458     1.0910 H       
  25 H25           -0.3509     3.3032     1.1156 H       
  26 H26            3.9264    -1.0459    -2.9805 H       
  27 H27            4.9888    -0.7160    -5.1744 H       
  28 H28            4.6676     1.3948    -6.3967 H       
  29 H29            3.2849     3.1867    -5.4326 H       
  30 H30            2.2049     2.8712    -3.2451 H       
  31 H31           -2.1876     0.5612    -0.1164 H       
  32 H32           -1.7748     2.1061     0.6655 H       
  33 H33           -1.7247     1.9649    -1.1082 H       
@<TRIPOS>BOND
   1    1    2 am
   2    1    7 1
   3    1   19 1
   4    2    3 1
   5    2   12 2
   6    3    4 1
   7    3   21 1
   8    3   22 1
   9    4    5 2
  10    5    6 1
  11    5   13 1
  12    6    7 ar
  13    6    8 ar
  14    7   11 ar
  15    8    9 ar
  16    8   23 1
  17    9   10 ar
  18    9   20 1
  19   10   11 ar
  20   10   24 1
  21   11   25 1
  22   13   14 ar
  23   13   18 ar
  24   14   15 ar
  25   14   26 1
  26   15   16 ar
  27   15   27 1
  28   16   17 ar
  29   16   28 1
  30   17   18 ar
  31   17   29 1
  32   18   30 1
  33   19   31 1
  34   19   32 1
  35   19   33 1

#	End of record

