#	Name: ASD00170730
#	Creating user name:	WinNT
#	Creation time:	15. 06. 2019 18:32

#	Modifying user name:	WinNT
#	Modification time:	15. 06. 2019 18:32

#	Program:	/corina/corina34_cracker 3.40 0067  02.08.2006

@<TRIPOS>MOLECULE
ASD00170730
  54   57    0    0    0
SMALL
NO_CHARGES


@<TRIPOS>ATOM
   1 C1            -0.0206     1.2084    -0.0128 C.2     
   2 O2             0.5543     0.7691     0.9666 O.2     
   3 C3             0.5757     1.0437    -1.3560 C.ar    
   4 C4             1.8352     0.4578    -1.4965 C.ar    
   5 C5             2.3864     0.3069    -2.7525 C.ar    
   6 C6             1.6919     0.7363    -3.8729 C.ar    
   7 C7             0.4425     1.3179    -3.7387 C.ar    
   8 C8            -0.1209     1.4682    -2.4887 C.ar    
   9 Cl9            2.3915     0.5445    -5.4501 Cl      
  10 Cl10           3.9523    -0.4212    -2.9299 Cl      
  11 C11           -5.0635     1.5991     0.2976 C.3     
  12 C12           -3.6147     2.0459     0.2777 C.2     
  13 C13           -2.5823     1.2088     0.1208 C.2     
  14 C14           -2.7629    -0.2911    -0.0546 C.3     
  15 C15           -4.1832    -0.6564     0.3887 C.3     
  16 N16           -5.1437     0.2431    -0.2654 N.3     
  17 C17           -1.3039     1.8938     0.1385 C.2     
  18 C18           -1.4207     3.2504     0.3123 C.2     
  19 S19           -3.0571     3.6999     0.4533 S.3     
  20 C20           -6.5105    -0.2866    -0.1697 C.3     
  21 C21           -7.4398     0.5350    -1.0655 C.3     
  22 C22           -8.8633    -0.0167    -0.9658 C.3     
  23 O23           -9.7312     0.7506    -1.8025 O.3     
  24 C24          -11.0409     0.3889    -1.8294 C.ar    
  25 C25          -11.9394     1.0905    -2.6201 C.ar    
  26 C26          -13.2702     0.7205    -2.6460 C.ar    
  27 C27          -13.7069    -0.3477    -1.8845 C.ar    
  28 C28          -12.8135    -1.0485    -1.0957 C.ar    
  29 C29          -11.4806    -0.6861    -1.0706 C.ar    
  30 N30          -15.1334    -0.7413    -1.9135 N.pl3   
  31 O31          -15.9214    -0.1244    -2.6077 O.2     
  32 O32          -15.5193    -1.6822    -1.2431 O.2     
  33 N33           -0.3578     4.1291     0.3662 N.pl3   
  34 H34            2.3771     0.1238    -0.6240 H       
  35 H35           -0.0938     1.6508    -4.6150 H       
  36 H36           -1.0974     1.9179    -2.3860 H       
  37 H37           -5.4300     1.5915     1.3240 H       
  38 H38           -5.6650     2.2810    -0.3035 H       
  39 H39           -2.6244    -0.5583    -1.1023 H       
  40 H40           -2.0373    -0.8234     0.5604 H       
  41 H41           -4.3989    -1.6868     0.1059 H       
  42 H42           -4.2651    -0.5508     1.4705 H       
  43 H43           -6.5203    -1.3274    -0.4934 H       
  44 H44           -6.8529    -0.2242     0.8633 H       
  45 H45           -7.4299     1.5757    -0.7417 H       
  46 H46           -7.0974     0.4725    -2.0984 H       
  47 H47           -8.8732    -1.0575    -1.2896 H       
  48 H48           -9.2057     0.0457     0.0672 H       
  49 H49          -11.5989     1.9254    -3.2145 H       
  50 H50          -13.9700     1.2663    -3.2614 H       
  51 H51          -13.1571    -1.8823    -0.5015 H       
  52 H52          -10.7823    -1.2364    -0.4575 H       
  53 H53            0.5515     3.7915     0.3584 H       
  54 H54           -0.5202     5.0844     0.4117 H       
@<TRIPOS>BOND
   1    1    2 2
   2    1    3 1
   3    1   17 1
   4    3    4 ar
   5    3    8 ar
   6    4    5 ar
   7    4   34 1
   8    5    6 ar
   9    5   10 1
  10    6    7 ar
  11    6    9 1
  12    7    8 ar
  13    7   35 1
  14    8   36 1
  15   11   12 1
  16   11   16 1
  17   11   37 1
  18   11   38 1
  19   12   13 2
  20   12   19 1
  21   13   14 1
  22   13   17 1
  23   14   15 1
  24   14   39 1
  25   14   40 1
  26   15   16 1
  27   15   41 1
  28   15   42 1
  29   16   20 1
  30   17   18 2
  31   18   19 1
  32   18   33 1
  33   20   21 1
  34   20   43 1
  35   20   44 1
  36   21   22 1
  37   21   45 1
  38   21   46 1
  39   22   23 1
  40   22   47 1
  41   22   48 1
  42   23   24 1
  43   24   25 ar
  44   24   29 ar
  45   25   26 ar
  46   25   49 1
  47   26   27 ar
  48   26   50 1
  49   27   28 ar
  50   27   30 1
  51   28   29 ar
  52   28   51 1
  53   29   52 1
  54   30   31 2
  55   30   32 2
  56   33   53 1
  57   33   54 1

#	End of record

