#	Name: ASD01560023
#	Creating user name:	WinNT
#	Creation time:	15. 06. 2019 19:22

#	Modifying user name:	WinNT
#	Modification time:	15. 06. 2019 19:22

#	Program:	/corina/corina34_cracker 3.40 0067  02.08.2006

@<TRIPOS>MOLECULE
ASD01560023
  57   61    0    0    0
SMALL
NO_CHARGES


@<TRIPOS>ATOM
   1 C1            -0.0173     1.4248     0.0099 C.3     
   2 C2             1.4212     1.9969    -0.0008 C.3     
   3 C3             1.6877     2.3212    -1.4835 C.3     
   4 O4             0.5247     1.9166    -2.2252 O.3     
   5 C5            -0.5964     1.9774    -1.3174 C.3     
   6 C6             2.9127     1.5466    -1.9735 C.3     
   7 O7             3.2216     1.9408    -3.3118 O.3     
   8 C8             4.3562     1.2727    -3.8674 C.3     
   9 C9             4.5889     1.7627    -5.2734 C.ar    
  10 C10            5.4100     2.8517    -5.4988 C.ar    
  11 C11            5.6235     3.3011    -6.7885 C.ar    
  12 C12            5.0162     2.6613    -7.8528 C.ar    
  13 C13            4.1959     1.5717    -7.6274 C.ar    
  14 C14            3.9859     1.1196    -6.3381 C.ar    
  15 O15            0.0021    -0.0041     0.0020 O.3     
  16 N16           -1.6927     1.1306    -1.7941 N.pl3   
  17 C17           -3.0169     1.2690    -1.4804 C.2     
  18 C18           -3.6855     0.2457    -2.1594 C.2     
  19 N19           -2.7543    -0.4579    -2.8444 N.2     
  20 C20           -1.5803     0.0646    -2.6359 C.2     
  21 N21           -3.7140     2.1220    -0.7167 N.2     
  22 N22           -5.7172     1.0483    -1.2249 N.am    
  23 C23           -5.0918     0.1466    -2.0142 C.2     
  24 O24           -5.7202    -0.7276    -2.5858 O.2     
  25 O25            2.3512     1.0207     0.4726 O.3     
  26 C26           -5.0075     2.0171    -0.5934 C.2     
  27 C27           -7.1701     0.9787    -1.0497 C.3     
  28 C28           -7.4922     0.0973     0.1295 C.ar    
  29 C29           -7.5984     0.6459     1.3939 C.ar    
  30 C30           -7.8939    -0.1626     2.4755 C.ar    
  31 C31           -8.0836    -1.5196     2.2926 C.ar    
  32 C32           -7.9784    -2.0680     1.0281 C.ar    
  33 C33           -7.6872    -1.2588    -0.0542 C.ar    
  34 H34           -0.5787     1.7996     0.8657 H       
  35 H35            1.4767     2.9009     0.6056 H       
  36 H36            1.8508     3.3921    -1.6051 H       
  37 H37           -0.9322     3.0066    -1.1906 H       
  38 H38            3.7623     1.7628    -1.3258 H       
  39 H39            2.7003     0.4777    -1.9494 H       
  40 H40            5.2357     1.4833    -3.2589 H       
  41 H41            4.1736     0.1982    -3.8826 H       
  42 H42            5.8844     3.3516    -4.6672 H       
  43 H43            6.2644     4.1524    -6.9645 H       
  44 H44            5.1825     3.0128    -8.8603 H       
  45 H45            3.7212     1.0720    -8.4589 H       
  46 H46            3.3450     0.2683    -6.1620 H       
  47 H47            0.4369    -0.3958     0.7718 H       
  48 H48           -0.6553    -0.2969    -3.0602 H       
  49 H49            2.1936     0.7364     1.3834 H       
  50 H50           -5.5315     2.7247     0.0320 H       
  51 H51           -7.5631     1.9799    -0.8730 H       
  52 H52           -7.6250     0.5633    -1.9489 H       
  53 H53           -7.4501     1.7061     1.5367 H       
  54 H54           -7.9761     0.2659     3.4634 H       
  55 H55           -8.3138    -2.1514     3.1378 H       
  56 H56           -8.1264    -3.1283     0.8853 H       
  57 H57           -7.6050    -1.6873    -1.0421 H       
@<TRIPOS>BOND
   1    1   15 1
   2    1    2 1
   3    1    5 1
   4    1   34 1
   5    2   25 1
   6    2    3 1
   7    2   35 1
   8    3    4 1
   9    3    6 1
  10    3   36 1
  11    4    5 1
  12    5   16 1
  13    5   37 1
  14    6    7 1
  15    6   38 1
  16    6   39 1
  17    7    8 1
  18    8    9 1
  19    8   40 1
  20    8   41 1
  21    9   10 ar
  22    9   14 ar
  23   10   11 ar
  24   10   42 1
  25   11   12 ar
  26   11   43 1
  27   12   13 ar
  28   12   44 1
  29   13   14 ar
  30   13   45 1
  31   14   46 1
  32   15   47 1
  33   16   17 1
  34   16   20 1
  35   17   18 2
  36   17   21 1
  37   18   19 1
  38   18   23 1
  39   19   20 2
  40   20   48 1
  41   21   26 2
  42   22   23 am
  43   22   26 1
  44   22   27 1
  45   23   24 2
  46   25   49 1
  47   26   50 1
  48   27   28 1
  49   27   51 1
  50   27   52 1
  51   28   29 ar
  52   28   33 ar
  53   29   30 ar
  54   29   53 1
  55   30   31 ar
  56   30   54 1
  57   31   32 ar
  58   31   55 1
  59   32   33 ar
  60   32   56 1
  61   33   57 1

#	End of record

