#	Name: ASD08070216
#	Creating user name:	WinNT
#	Creation time:	15. 06. 2019 21:14

#	Modifying user name:	WinNT
#	Modification time:	15. 06. 2019 21:14

#	Program:	/corina/corina34_cracker 3.40 0067  02.08.2006

@<TRIPOS>MOLECULE
ASD08070216
  41   42    0    0    0
SMALL
NO_CHARGES


@<TRIPOS>ATOM
   1 C1            -0.0167     1.3815     0.0096 C.ar    
   2 C2             0.0021    -0.0041     0.0020 C.ar    
   3 C3            -1.1889    -0.7124     0.0101 C.ar    
   4 C4            -2.4154     1.3493     0.0439 C.ar    
   5 C5            -1.2264     2.0576     0.0306 C.ar    
   6 O6            -3.5141     1.9574    -2.2804 O.2     
   7 C7            -3.7303     2.0853     0.0662 C.3     
   8 C8            -5.6097     4.7695    -4.9079 C.3     
   9 C9            -5.1443     4.5132    -3.4731 C.3     
  10 F10           -1.2448     3.4084     0.0484 F       
  11 F11            1.1438     2.0730     0.0023 F       
  12 F12            1.1808    -0.6640    -0.0137 F       
  13 F13           -1.1717    -2.0633     0.0031 F       
  14 C14           -5.7939     3.2315    -2.9475 C.3     
  15 C15           -4.1887     2.3377    -1.3470 C.2     
  16 N16           -5.3483     2.9862    -1.5736 N.am    
  17 C17           -2.3977    -0.0346     0.0257 C.ar    
  18 F18           -3.5590    -0.7250     0.0336 F       
  19 C19           -7.1319     4.9228    -4.9306 C.3     
  20 C20           -7.7814     3.6411    -4.4050 C.3     
  21 C21           -7.3160     3.3849    -2.9702 C.3     
  22 C22           -7.9656     2.1032    -2.4446 C.3     
  23 C23           -9.3036     3.7944    -4.4277 C.3     
  24 H24           -4.4747     1.4836     0.5877 H       
  25 H25           -3.6053     3.0368     0.5831 H       
  26 H26           -5.1470     5.6826    -5.2824 H       
  27 H27           -5.3197     3.9297    -5.5394 H       
  28 H28           -4.0599     4.4040    -3.4569 H       
  29 H29           -5.4344     5.3529    -2.8416 H       
  30 H30           -5.5039     2.3918    -3.5790 H       
  31 H31           -5.8878     3.2904    -0.8271 H       
  32 H32           -7.4219     5.7625    -4.2991 H       
  33 H33           -7.4634     5.1054    -5.9528 H       
  34 H34           -7.4914     2.8014    -5.0365 H       
  35 H35           -7.6061     4.2246    -2.3387 H       
  36 H36           -7.6756     1.2635    -3.0761 H       
  37 H37           -7.6341     1.9206    -1.4224 H       
  38 H38           -9.0500     2.2124    -2.4608 H       
  39 H39           -9.6351     3.9770    -5.4499 H       
  40 H40           -9.7663     2.8814    -4.0532 H       
  41 H41           -9.5936     4.6342    -3.7962 H       
@<TRIPOS>BOND
   1    1    2 ar
   2    1   11 1
   3    1    5 ar
   4    2    3 ar
   5    2   12 1
   6    3   17 ar
   7    3   13 1
   8    4    5 ar
   9    4    7 1
  10    4   17 ar
  11    5   10 1
  12    6   15 2
  13    7   15 1
  14    7   24 1
  15    7   25 1
  16    8    9 1
  17    8   19 1
  18    8   26 1
  19    8   27 1
  20    9   14 1
  21    9   28 1
  22    9   29 1
  23   14   16 1
  24   14   21 1
  25   14   30 1
  26   15   16 am
  27   16   31 1
  28   17   18 1
  29   19   20 1
  30   19   32 1
  31   19   33 1
  32   20   21 1
  33   20   23 1
  34   20   34 1
  35   21   22 1
  36   21   35 1
  37   22   36 1
  38   22   37 1
  39   22   38 1
  40   23   39 1
  41   23   40 1
  42   23   41 1

#	End of record

