#	Name: ASD03730307
#	Creating user name:	WinNT
#	Creation time:	15. 06. 2019 20:44

#	Modifying user name:	WinNT
#	Modification time:	15. 06. 2019 20:44

#	Program:	/corina/corina34_cracker 3.40 0067  02.08.2006

@<TRIPOS>MOLECULE
ASD03730307
  60   65    0    0    0
SMALL
NO_CHARGES


@<TRIPOS>ATOM
   1 O1             1.2999     2.0272    -1.7493 O.3     
   2 C2             1.2836     0.5959    -1.9053 C.3     
   3 O3             2.6685     0.2579    -2.1069 O.3     
   4 C4             3.3794     1.2371    -1.4740 C.ar    
   5 C5             2.5379     2.3258    -1.2565 C.ar    
   6 C6             4.6973     1.2876    -1.0570 C.ar    
   7 C7             5.1931     2.4226    -0.4226 C.ar    
   8 C8             4.3463     3.5084    -0.2213 C.ar    
   9 C9             3.0297     3.4582    -0.6294 C.ar    
  10 O10            6.4380     2.6677     0.0776 O.3     
  11 C11            5.1696     4.5764     0.4476 C.3     
  12 C12            6.6108     4.0879     0.2466 C.3     
  13 N13            4.5354     6.7377     0.8332 N.am    
  14 C14            4.9489     5.9303    -0.1638 C.2     
  15 C15            4.8298     4.7361     1.8994 C.ar    
  16 C16            4.8286     3.8714     2.9854 C.ar    
  17 C17            4.4501     4.3391     4.2437 C.ar    
  18 C18            4.0789     5.6599     4.3996 C.ar    
  19 C19            4.0806     6.5191     3.3196 C.ar    
  20 C20            4.4562     6.0661     2.0560 C.ar    
  21 O21            5.1114     6.2371    -1.3260 O.2     
  22 C22            4.2073     8.1544     0.6556 C.3     
  23 C23            2.7231     8.2949     0.3119 C.3     
  24 C24            2.3804     9.7744     0.1263 C.3     
  25 C25            0.8961     9.9149    -0.2174 C.3     
  26 C26            0.5534    11.3945    -0.4030 C.3     
  27 C27            4.2662     1.4514     2.7319 C.ar    
  28 C28            5.2283     2.4538     2.8081 C.ar    
  29 C29            6.5829     2.1007     2.7137 C.ar    
  30 C30            6.9019     0.7569     2.5475 C.ar    
  31 C31            5.8848    -0.1737     2.4818 C.ar    
  32 N32            4.6195     0.1916     2.5735 N.ar    
  33 O33            7.5554     3.0444     2.7823 O.3     
  34 C34            8.9069     2.5922     2.6768 C.3     
  35 H35            0.8997     0.1169    -1.0046 H       
  36 H36            0.6896     0.3121    -2.7741 H       
  37 H37            5.3458     0.4403    -1.2246 H       
  38 H38            2.3806     4.3045    -0.4595 H       
  39 H39            7.2183     4.3020     1.1259 H       
  40 H40            7.0495     4.5334    -0.6463 H       
  41 H41            4.4471     3.6710     5.0923 H       
  42 H42            3.7855     6.0231     5.3734 H       
  43 H43            3.7880     7.5499     3.4544 H       
  44 H44            4.4194     8.6949     1.5780 H       
  45 H45            4.8085     8.5678    -0.1542 H       
  46 H46            2.5110     7.7543    -0.6106 H       
  47 H47            2.1219     7.8815     1.1217 H       
  48 H48            2.5925    10.3150     1.0488 H       
  49 H49            2.9816    10.1878    -0.6835 H       
  50 H50            0.6840     9.3744    -1.1399 H       
  51 H51            0.2949     9.5015     0.5924 H       
  52 H52            0.7655    11.9350     0.5195 H       
  53 H53            1.1546    11.8079    -1.2128 H       
  54 H54           -0.5040    11.4946    -0.6478 H       
  55 H55            3.2198     1.7078     2.8075 H       
  56 H56            7.9331     0.4456     2.4704 H       
  57 H57            6.1280    -1.2180     2.3528 H       
  58 H58            9.0494     2.0938     1.7179 H       
  59 H59            9.5820     3.4451     2.7469 H       
  60 H60            9.1201     1.8926     3.4850 H       
@<TRIPOS>BOND
   1    1    2 1
   2    1    5 1
   3    2    3 1
   4    2   35 1
   5    2   36 1
   6    3    4 1
   7    4    5 ar
   8    4    6 ar
   9    5    9 ar
  10    6    7 ar
  11    6   37 1
  12    7    8 ar
  13    7   10 1
  14    8    9 ar
  15    8   11 1
  16    9   38 1
  17   10   12 1
  18   11   12 1
  19   11   14 1
  20   11   15 1
  21   12   39 1
  22   12   40 1
  23   13   14 am
  24   13   20 1
  25   13   22 1
  26   14   21 2
  27   15   16 ar
  28   15   20 ar
  29   16   17 ar
  30   16   28 1
  31   17   18 ar
  32   17   41 1
  33   18   19 ar
  34   18   42 1
  35   19   20 ar
  36   19   43 1
  37   22   23 1
  38   22   44 1
  39   22   45 1
  40   23   24 1
  41   23   46 1
  42   23   47 1
  43   24   25 1
  44   24   48 1
  45   24   49 1
  46   25   26 1
  47   25   50 1
  48   25   51 1
  49   26   52 1
  50   26   53 1
  51   26   54 1
  52   27   28 ar
  53   27   32 ar
  54   27   55 1
  55   28   29 ar
  56   29   30 ar
  57   29   33 1
  58   30   31 ar
  59   30   56 1
  60   31   32 ar
  61   31   57 1
  62   33   34 1
  63   34   58 1
  64   34   59 1
  65   34   60 1

#	End of record

