#	Name: ASD01120122
#	Creating user name:	WinNT
#	Creation time:	15. 06. 2019 18:59

#	Modifying user name:	WinNT
#	Modification time:	15. 06. 2019 18:59

#	Program:	/corina/corina34_cracker 3.40 0067  02.08.2006

@<TRIPOS>MOLECULE
ASD01120122
  31   33    0    0    0
SMALL
NO_CHARGES


@<TRIPOS>ATOM
   1 C1            -0.0174     1.2667    -0.6967 C.ar    
   2 C2             1.0837     1.5913    -1.4678 C.ar    
   3 C3             2.2915     0.9578    -1.2509 C.ar    
   4 C4             2.3997    -0.0061    -0.2564 C.ar    
   5 C5             1.2917    -0.3294     0.5166 C.ar    
   6 C6             0.0868     0.3076     0.2941 C.ar    
   7 N7             3.6204    -0.6495    -0.0345 N.pl3   
   8 C8             4.8073     0.0580    -0.1467 C.2     
   9 N9             5.9964    -0.4565    -0.0787 N.2     
  10 C10            7.0204     0.3765    -0.2083 C.2     
  11 C11            6.6938     1.6668    -0.3963 C.2     
  12 S12            4.9363     1.7943    -0.4112 S.3     
  13 C13            8.4292    -0.0840    -0.1492 C.ar    
  14 C14            8.7151    -1.4340     0.0478 C.ar    
  15 C15           10.0262    -1.8591     0.1018 C.ar    
  16 C16           11.0604    -0.9441    -0.0395 C.ar    
  17 C17           10.7790     0.4010    -0.2354 C.ar    
  18 C18            9.4701     0.8315    -0.2965 C.ar    
  19 O19           12.3512    -1.3661     0.0146 O.3     
  20 H20           -0.9597     1.7666    -0.8657 H       
  21 H21            0.9989     2.3408    -2.2408 H       
  22 H22            3.1509     1.2113    -1.8540 H       
  23 H23            1.3724    -1.0784     1.2906 H       
  24 H24           -0.7750     0.0567     0.8948 H       
  25 H25            3.6371    -1.5911     0.1979 H       
  26 H26            7.3888     2.4840    -0.5208 H       
  27 H27            7.9109    -2.1463     0.1585 H       
  28 H28           10.2483    -2.9049     0.2545 H       
  29 H29           11.5859     1.1105    -0.3446 H       
  30 H30            9.2518     1.8782    -0.4489 H       
  31 H31           12.7193    -1.6169    -0.8437 H       
@<TRIPOS>BOND
   1    1    2 ar
   2    1    6 ar
   3    1   20 1
   4    2    3 ar
   5    2   21 1
   6    3    4 ar
   7    3   22 1
   8    4    5 ar
   9    4    7 1
  10    5    6 ar
  11    5   23 1
  12    6   24 1
  13    7    8 1
  14    7   25 1
  15    8    9 2
  16    8   12 1
  17    9   10 1
  18   10   11 2
  19   10   13 1
  20   11   12 1
  21   11   26 1
  22   13   14 ar
  23   13   18 ar
  24   14   15 ar
  25   14   27 1
  26   15   16 ar
  27   15   28 1
  28   16   17 ar
  29   16   19 1
  30   17   18 ar
  31   17   29 1
  32   18   30 1
  33   19   31 1

#	End of record

