#	Name: ASD03200009
#	Creating user name:	WinNT
#	Creation time:	15. 06. 2019 20:34

#	Modifying user name:	WinNT
#	Modification time:	15. 06. 2019 20:34

#	Program:	/corina/corina34_cracker 3.40 0067  02.08.2006

@<TRIPOS>MOLECULE
ASD03200009
  43   45    0    0    0
SMALL
NO_CHARGES


@<TRIPOS>ATOM
   1 C1             0.9662    -1.0293    -0.1621 C.3     
   2 N2            -0.0316     0.0365    -0.0040 N.3     
   3 C3             0.3000     0.9106     1.1284 C.3     
   4 C4             1.6483     1.5883     0.8737 C.3     
   5 C5             2.7278     0.5165     0.6990 C.3     
   6 C6             2.3344    -0.4095    -0.4553 C.3     
   7 C7            -1.3129    -0.4952     0.1338 C.ar    
   8 C8            -2.0182    -0.3608     1.3272 C.ar    
   9 C9            -3.2846    -0.9008     1.4239 C.ar    
  10 N10           -3.8306    -1.5387     0.4059 N.ar    
  11 C11           -3.1994    -1.6899    -0.7434 C.ar    
  12 C12           -1.9274    -1.1733    -0.9258 C.ar    
  13 N13           -1.2613    -1.3365    -2.1480 N.am    
  14 C14           -1.4471    -2.4579    -2.8722 C.2     
  15 C15           -0.8520    -2.5758    -4.2051 C.2     
  16 O16           -2.1098    -3.3729    -2.4183 O.2     
  17 C17           -1.0043    -3.6927    -4.9936 C.2     
  18 S18           -0.1342    -3.4147    -6.5004 S.3     
  19 C19            0.3551    -1.8221    -5.9333 C.2     
  20 N20           -0.1201    -1.6051    -4.7601 N.2     
  21 C21            1.2035    -0.8514    -6.7137 C.3     
  22 N22            1.9896     2.4463     2.0162 N.3     
  23 N23           -1.7132    -4.8313    -4.6623 N.pl3   
  24 H24            1.0216    -1.6140     0.7562 H       
  25 H25            0.6767    -1.6781    -0.9887 H       
  26 H26           -0.4733     1.6708     1.2391 H       
  27 H27            0.3585     0.3168     2.0406 H       
  28 H28            1.5864     2.1933    -0.0308 H       
  29 H29            3.6818     0.9935     0.4743 H       
  30 H30            2.8169    -0.0638     1.6173 H       
  31 H31            3.0777    -1.2002    -0.5571 H       
  32 H32            2.2833     0.1640    -1.3808 H       
  33 H33           -1.5796     0.1589     2.1662 H       
  34 H34           -3.8369    -0.8001     2.3466 H       
  35 H35           -3.6817    -2.2192    -1.5518 H       
  36 H36           -0.6666    -0.6425    -2.4727 H       
  37 H37            1.4633    -1.2893    -7.6775 H       
  38 H38            0.6465     0.0720    -6.8723 H       
  39 H39            2.1145    -0.6350    -6.1557 H       
  40 H40            2.8765     2.9052     1.8716 H       
  41 H41            1.2590     3.1193     2.1939 H       
  42 H42           -2.1609    -4.8913    -3.8039 H       
  43 H43           -1.7633    -5.5707    -5.2882 H       
@<TRIPOS>BOND
   1    1    2 1
   2    1    6 1
   3    1   24 1
   4    1   25 1
   5    2    3 1
   6    2    7 1
   7    3    4 1
   8    3   26 1
   9    3   27 1
  10    4    5 1
  11    4   22 1
  12    4   28 1
  13    5    6 1
  14    5   29 1
  15    5   30 1
  16    6   31 1
  17    6   32 1
  18    7    8 ar
  19    7   12 ar
  20    8    9 ar
  21    8   33 1
  22    9   10 ar
  23    9   34 1
  24   10   11 ar
  25   11   12 ar
  26   11   35 1
  27   12   13 1
  28   13   14 am
  29   13   36 1
  30   14   15 1
  31   14   16 2
  32   15   17 2
  33   15   20 1
  34   17   18 1
  35   17   23 1
  36   18   19 1
  37   19   20 2
  38   19   21 1
  39   21   37 1
  40   21   38 1
  41   21   39 1
  42   22   40 1
  43   22   41 1
  44   23   42 1
  45   23   43 1

#	End of record

