#	Name: ASD01913638
#	Creating user name:	WinNT
#	Creation time:	15. 06. 2019 20:01

#	Modifying user name:	WinNT
#	Modification time:	15. 06. 2019 20:01

#	Program:	/corina/corina34_cracker 3.40 0067  02.08.2006

@<TRIPOS>MOLECULE
ASD01913638
  35   37    0    0    0
SMALL
NO_CHARGES


@<TRIPOS>ATOM
   1 C1            -0.0167     1.3781     0.0096 C.ar    
   2 C2             0.0021    -0.0041     0.0020 C.ar    
   3 C3             1.2084    -0.6789    -0.0132 C.ar    
   4 C4             2.3960     0.0285    -0.0212 C.ar    
   5 C5             2.3773     1.4107    -0.0145 C.ar    
   6 C6             1.1710     2.0855     0.0021 C.ar    
   7 C7             3.6720     2.1819    -0.0228 C.3     
   8 O8             4.0688     2.4320    -1.3726 O.3     
   9 C9             5.2213     3.1203    -1.5575 C.ar    
  10 N10            5.9164     3.5236    -0.5050 N.ar    
  11 C11            7.0418     4.1951    -0.6357 C.ar    
  12 C12            7.5390     4.5042    -1.9026 C.ar    
  13 C13            6.8222     4.0888    -3.0346 C.ar    
  14 C14            5.6599     3.3880    -2.8506 C.ar    
  15 C15            8.7997     5.2571    -2.0491 C.2     
  16 N16            9.4801     5.6517    -0.9546 N.am    
  17 O17            9.2247     5.5215    -3.1572 O.2     
  18 C18           10.6667     6.3604    -1.0925 C.2     
  19 N19           11.3964     6.7854    -0.1088 N.2     
  20 C20           12.4968     7.4436    -0.4221 C.2     
  21 C21           12.7069     7.5812    -1.7326 C.2     
  22 S22           11.3815     6.7927    -2.5842 S.3     
  23 H23           -0.9592     1.9054     0.0170 H       
  24 H24           -0.9258    -0.5567     0.0083 H       
  25 H25            1.2231    -1.7588    -0.0184 H       
  26 H26            3.3386    -0.4987    -0.0324 H       
  27 H27            1.1563     3.1654     0.0069 H       
  28 H28            3.5335     3.1300     0.4968 H       
  29 H29            4.4443     1.6008     0.4812 H       
  30 H30            7.5837     4.5094     0.2441 H       
  31 H31            7.1808     4.3129    -4.0284 H       
  32 H32            5.0846     3.0539    -3.7013 H       
  33 H33            9.1410     5.4408    -0.0706 H       
  34 H34           13.1721     7.8393     0.3221 H       
  35 H35           13.5452     8.0846    -2.1912 H       
@<TRIPOS>BOND
   1    1    2 ar
   2    1    6 ar
   3    1   23 1
   4    2    3 ar
   5    2   24 1
   6    3    4 ar
   7    3   25 1
   8    4    5 ar
   9    4   26 1
  10    5    6 ar
  11    5    7 1
  12    6   27 1
  13    7    8 1
  14    7   28 1
  15    7   29 1
  16    8    9 1
  17    9   10 ar
  18    9   14 ar
  19   10   11 ar
  20   11   12 ar
  21   11   30 1
  22   12   13 ar
  23   12   15 1
  24   13   14 ar
  25   13   31 1
  26   14   32 1
  27   15   16 am
  28   15   17 2
  29   16   18 1
  30   16   33 1
  31   18   19 2
  32   18   22 1
  33   19   20 1
  34   20   21 2
  35   20   34 1
  36   21   22 1
  37   21   35 1

#	End of record

