#	Name: ASD01870293
#	Creating user name:	WinNT
#	Creation time:	15. 06. 2019 19:38

#	Modifying user name:	WinNT
#	Modification time:	15. 06. 2019 19:38

#	Program:	/corina/corina34_cracker 3.40 0067  02.08.2006

@<TRIPOS>MOLECULE
ASD01870293
  34   36    0    0    0
SMALL
NO_CHARGES


@<TRIPOS>ATOM
   1 N1             0.1140     1.3747    -0.6732 N.2     
   2 C2             0.1566     0.0564    -0.8128 C.2     
   3 C3             1.3610    -0.5066    -0.6025 C.2     
   4 S4             2.5036     0.7724    -0.1977 S.3     
   5 C5             1.2209     1.9689    -0.3540 C.2     
   6 N6             1.3720     3.3361    -0.1657 N.am    
   7 C7             0.2221     4.2293    -0.3273 C.3     
   8 C8             2.5766     3.8417     0.1658 C.2     
   9 C9             2.7616     5.3033     0.2665 C.ar    
  10 O10            3.5109     3.0944     0.3818 O.2     
  11 C11            1.7206     6.1113     0.7297 C.ar    
  12 C12            3.9801     5.8822    -0.0954 C.ar    
  13 C13            4.1474     7.2470     0.0011 C.ar    
  14 C14            3.1090     8.0448     0.4569 C.ar    
  15 C15            1.8989     7.4749     0.8222 C.ar    
  16 F16            3.2785     9.3819     0.5500 F       
  17 C17           -1.0385    -0.7410    -1.1746 C.ar    
  18 C18           -2.2607    -0.1015    -1.3803 C.ar    
  19 C19           -3.3673    -0.8596    -1.7175 C.ar    
  20 C20           -3.2173    -2.2347    -1.8386 C.ar    
  21 C21           -1.9769    -2.8033    -1.6207 C.ar    
  22 N22           -0.9364    -2.0579    -1.3056 N.ar    
  23 H23            1.5879    -1.5604    -0.6697 H       
  24 H24           -0.2716     4.3638     0.6352 H       
  25 H25            0.5621     5.1957    -0.6995 H       
  26 H26           -0.4800     3.7929    -1.0378 H       
  27 H27            0.7776     5.6684     1.0144 H       
  28 H28            4.7897     5.2616    -0.4499 H       
  29 H29            5.0891     7.6956    -0.2786 H       
  30 H30            1.0946     8.1006     1.1801 H       
  31 H31           -2.3419     0.9705    -1.2774 H       
  32 H32           -4.3269    -0.3923    -1.8826 H       
  33 H33           -4.0624    -2.8541    -2.1003 H       
  34 H34           -1.8573    -3.8726    -1.7142 H       
@<TRIPOS>BOND
   1    1    2 1
   2    1    5 2
   3    2    3 2
   4    2   17 1
   5    3    4 1
   6    3   23 1
   7    4    5 1
   8    5    6 1
   9    6    7 1
  10    6    8 am
  11    7   24 1
  12    7   25 1
  13    7   26 1
  14    8    9 1
  15    8   10 2
  16    9   12 ar
  17    9   11 ar
  18   11   15 ar
  19   11   27 1
  20   12   13 ar
  21   12   28 1
  22   13   14 ar
  23   13   29 1
  24   14   15 ar
  25   14   16 1
  26   15   30 1
  27   17   18 ar
  28   17   22 ar
  29   18   19 ar
  30   18   31 1
  31   19   20 ar
  32   19   32 1
  33   20   21 ar
  34   20   33 1
  35   21   22 ar
  36   21   34 1

#	End of record

