#	Name: ASD05740127
#	Creating user name:	WinNT
#	Creation time:	15. 06. 2019 21:02

#	Modifying user name:	WinNT
#	Modification time:	15. 06. 2019 21:02

#	Program:	/corina/corina34_cracker 3.40 0067  02.08.2006

@<TRIPOS>MOLECULE
ASD05740127
  48   49    0    0    0
SMALL
NO_CHARGES


@<TRIPOS>ATOM
   1 C1            -0.0167     1.3816     0.0096 C.2     
   2 C2            -3.1787     0.8545     1.3288 C.3     
   3 C3            -2.9456    -0.6005     3.4006 C.2     
   4 C4            -2.3699    -1.6850     4.0383 C.2     
   5 C5            -2.5719    -0.3181     2.0553 C.2     
   6 C6            -1.6645    -1.1145     1.4322 C.2     
   7 C7            -1.1087    -2.2035     2.1226 C.2     
   8 O8            -1.4679    -2.4589     3.3885 O.3     
   9 C9            -1.2577    -0.8312     0.0091 C.3     
  10 C10            0.0021    -0.0041     0.0020 C.2     
  11 C11            1.2171    -0.5503    -0.0125 C.2     
  12 O12           -0.2938    -2.9210     1.5674 O.2     
  13 C13            1.1936     1.9589     0.0012 C.2     
  14 S14            2.4377     0.7158    -0.0174 S.3     
  15 N15            1.4298     3.3349     0.0056 N.am    
  16 S16            2.5790     3.9745     1.0119 S.o2    
  17 O17            2.6017     5.3724     0.7578 O.2     
  18 O18            2.3378     3.4223     2.2988 O.2     
  19 S19           -2.9965    -1.8144     5.6783 S.3     
  20 C20           -4.0199    -0.4064     5.4709 C.2     
  21 C21           -3.8904     0.1025     4.2562 C.2     
  22 O22           -4.8423     0.0936     6.4297 O.3     
  23 C23           -4.8618    -0.5861     7.6865 C.3     
  24 N24            4.0458     3.3856     0.5178 N.am    
  25 C25            4.5736     3.7464    -0.8004 C.3     
  26 H26           -0.9340     1.9517     0.0172 H       
  27 H27           -3.8785     1.3679     1.9882 H       
  28 H28           -2.3896     1.5440     1.0289 H       
  29 H29           -3.7069     0.4998     0.4438 H       
  30 H30           -1.0777    -1.7718    -0.5114 H       
  31 H31           -2.0545    -0.2839    -0.4945 H       
  32 H32            1.4217    -1.6107    -0.0196 H       
  33 H33            0.9208     3.9163    -0.5807 H       
  34 H34           -4.4365     0.9747     3.9284 H       
  35 H35           -5.5578    -0.0854     8.3596 H       
  36 H36           -5.1798    -1.6179     7.5367 H       
  37 H37           -3.8626    -0.5735     8.1220 H       
  38 H38            4.5555     2.8018     1.1011 H       
  39 H39            5.5418     3.2677    -0.9475 H       
  40 H40            3.8816     3.4114    -1.5730 H       
  41 H41            4.6902     4.8284    -0.8613 H       
  42 C42           11.0690    13.0418    15.2279 C.3     
  43 N43           11.0889    11.5769    15.2198 N.2     
  44 C44           11.6296    10.9644    14.2738 C.1     
  45 O45           12.1521    10.3724    13.3596 O.2     
  46 H46           12.0916    13.4191    15.2201 H       
  47 H47           10.5418    13.4029    14.3448 H       
  48 H48           10.5588    13.3933    16.1246 H       
@<TRIPOS>BOND
   1    1   10 1
   2    1   13 2
   3    1   26 1
   4    2    5 1
   5    2   27 1
   6    2   28 1
   7    2   29 1
   8    3    4 2
   9    3    5 1
  10    3   21 1
  11    4   19 1
  12    4    8 1
  13    5    6 2
  14    6    7 1
  15    6    9 1
  16    7    8 1
  17    7   12 2
  18    9   10 1
  19    9   30 1
  20    9   31 1
  21   10   11 2
  22   11   14 1
  23   11   32 1
  24   13   14 1
  25   13   15 1
  26   15   16 am
  27   15   33 1
  28   16   17 2
  29   16   18 2
  30   16   24 am
  31   19   20 1
  32   20   21 2
  33   20   22 1
  34   21   34 1
  35   22   23 1
  36   23   35 1
  37   23   36 1
  38   23   37 1
  39   24   25 1
  40   24   38 1
  41   25   39 1
  42   25   40 1
  43   25   41 1
  44   42   43 1
  45   42   46 1
  46   42   47 1
  47   42   48 1
  48   43   44 2
  49   44   45 2

#	End of record

