#	Name: ASD06170208
#	Creating user name:	WinNT
#	Creation time:	15. 06. 2019 21:05

#	Modifying user name:	WinNT
#	Modification time:	15. 06. 2019 21:05

#	Program:	/corina/corina34_cracker 3.40 0067  02.08.2006

@<TRIPOS>MOLECULE
ASD06170208
  71   76    0    0    0
SMALL
NO_CHARGES


@<TRIPOS>ATOM
   1 C1             0.2179     1.3394     0.0465 C.2     
   2 C2             0.0193    -0.0399    -0.1986 C.2     
   3 C3             1.1234    -0.8244    -0.5783 C.2     
   4 C4             2.3821    -0.2071    -0.6996 C.2     
   5 C5             2.5123     1.1149    -0.4528 C.2     
   6 N6             1.4457     1.8747    -0.0856 N.am    
   7 C7            -1.3108    -0.6398    -0.0590 C.2     
   8 O8            -1.4904    -1.8017    -0.3735 O.2     
   9 N9            -2.3350     0.0954     0.4175 N.am    
  10 N10            0.9755    -2.1701    -0.8259 N.pl3   
  11 C11            1.3149    -2.6918    -2.0774 C.ar    
  12 C12            1.2924    -4.0646    -2.2887 C.ar    
  13 C13            1.6278    -4.5767    -3.5266 C.ar    
  14 C14            1.9862    -3.7245    -4.5551 C.ar    
  15 C15            2.0096    -2.3574    -4.3481 C.ar    
  16 C16            1.6698    -1.8383    -3.1143 C.ar    
  17 C17            1.6286     3.2413     0.1594 C.ar    
  18 C18            2.4021     3.6579     1.2348 C.ar    
  19 C19            2.5809     5.0065     1.4735 C.ar    
  20 C20            1.9906     5.9414     0.6430 C.ar    
  21 C21            1.2198     5.5297    -0.4287 C.ar    
  22 C22            1.0415     4.1826    -0.6759 C.ar    
  23 O23           -0.7229     2.0431     0.3720 O.2     
  24 C24           -3.5686    -0.5059     0.6662 C.ar    
  25 C25           -3.6461    -1.8881     0.7960 C.ar    
  26 C26           -4.8744    -2.4740     1.0431 C.ar    
  27 C27           -5.9923    -1.6505     1.1527 C.ar    
  28 C28           -5.8393    -0.2805     1.0118 C.ar    
  29 N29           -4.6515     0.2458     0.7815 N.ar    
  30 O30           -7.2191    -2.1844     1.3946 O.3     
  31 N31           -8.0298    -3.4601     5.2321 N.ar    
  32 C32           -6.9031    -2.8420     4.9662 C.ar    
  33 C33           -6.5953    -2.3982     3.6864 C.ar    
  34 C34           -7.4924    -2.6069     2.6536 C.ar    
  35 C35           -8.7023    -3.2734     2.9515 C.ar    
  36 C36           -9.6603    -3.5215     1.9572 C.ar    
  37 C37          -10.8178    -4.1686     2.2809 C.ar    
  38 C38          -11.0588    -4.5872     3.5972 C.ar    
  39 C39          -10.1435    -4.3585     4.5838 C.ar    
  40 C40           -8.9426    -3.6954     4.2819 C.ar    
  41 O41          -12.2192    -5.2288     3.8948 O.3     
  42 C42          -12.4081    -5.6311     5.2529 C.3     
  43 O43          -11.7466    -4.4091     1.3173 O.3     
  44 C44          -11.4425    -3.9576    -0.0040 C.3     
  45 H45            3.2439    -0.7899    -0.9895 H       
  46 H46            3.4833     1.5778    -0.5492 H       
  47 H47           -2.2141     1.0427     0.5875 H       
  48 H48            0.6358    -2.7566    -0.1320 H       
  49 H49            1.0133    -4.7307    -1.4857 H       
  50 H50            1.6105    -5.6438    -3.6916 H       
  51 H51            2.2487    -4.1276    -5.5220 H       
  52 H52            2.2903    -1.6947    -5.1534 H       
  53 H53            1.6840    -0.7703    -2.9546 H       
  54 H54            2.8630     2.9283     1.8840 H       
  55 H55            3.1821     5.3312     2.3100 H       
  56 H56            2.1317     6.9953     0.8320 H       
  57 H57            0.7598     6.2623    -1.0753 H       
  58 H58            0.4428     3.8616    -1.5155 H       
  59 H59           -2.7585    -2.4965     0.7048 H       
  60 H60           -4.9646    -3.5451     1.1481 H       
  61 H61           -6.7017     0.3642     1.0952 H       
  62 H62           -6.1957    -2.6734     5.7647 H       
  63 H63           -5.6600    -1.8921     3.4982 H       
  64 H64           -9.4831    -3.2019     0.9410 H       
  65 H65          -10.3420    -4.6867     5.5934 H       
  66 H66          -12.3849    -4.7532     5.8986 H       
  67 H67          -13.3718    -6.1305     5.3532 H       
  68 H68          -11.6117    -6.3166     5.5429 H       
  69 H69          -12.2644    -4.2123    -0.6731 H       
  70 H70          -11.3027    -2.8766     0.0046 H       
  71 H71          -10.5286    -4.4395    -0.3513 H       
@<TRIPOS>BOND
   1    1    2 1
   2    1    6 am
   3    1   23 2
   4    2    3 2
   5    2    7 1
   6    3    4 1
   7    3   10 1
   8    4    5 2
   9    4   45 1
  10    5    6 1
  11    5   46 1
  12    6   17 1
  13    7    8 2
  14    7    9 am
  15    9   24 1
  16    9   47 1
  17   10   11 1
  18   10   48 1
  19   11   12 ar
  20   11   16 ar
  21   12   13 ar
  22   12   49 1
  23   13   14 ar
  24   13   50 1
  25   14   15 ar
  26   14   51 1
  27   15   16 ar
  28   15   52 1
  29   16   53 1
  30   17   18 ar
  31   17   22 ar
  32   18   19 ar
  33   18   54 1
  34   19   20 ar
  35   19   55 1
  36   20   21 ar
  37   20   56 1
  38   21   22 ar
  39   21   57 1
  40   22   58 1
  41   24   25 ar
  42   24   29 ar
  43   25   26 ar
  44   25   59 1
  45   26   27 ar
  46   26   60 1
  47   27   28 ar
  48   27   30 1
  49   28   29 ar
  50   28   61 1
  51   30   34 1
  52   31   32 ar
  53   31   40 ar
  54   32   33 ar
  55   32   62 1
  56   33   34 ar
  57   33   63 1
  58   34   35 ar
  59   35   36 ar
  60   35   40 ar
  61   36   37 ar
  62   36   64 1
  63   37   38 ar
  64   37   43 1
  65   38   39 ar
  66   38   41 1
  67   39   40 ar
  68   39   65 1
  69   41   42 1
  70   42   66 1
  71   42   67 1
  72   42   68 1
  73   43   44 1
  74   44   69 1
  75   44   70 1
  76   44   71 1

#	End of record

