#	Name: ASD04590302
#	Creating user name:	WinNT
#	Creation time:	15. 06. 2019 20:50

#	Modifying user name:	WinNT
#	Modification time:	15. 06. 2019 20:50

#	Program:	/corina/corina34_cracker 3.40 0067  02.08.2006

@<TRIPOS>MOLECULE
ASD04590302
  51   55    0    0    0
SMALL
NO_CHARGES


@<TRIPOS>ATOM
   1 C1            -0.0293     1.4009    -0.1009 C.ar    
   2 C2            -0.0025     0.0033    -0.0101 C.ar    
   3 C3             1.2133    -0.6702     0.0614 C.ar    
   4 C4             2.4037     0.0566     0.0416 C.ar    
   5 C5             2.3574     1.4610    -0.0505 C.ar    
   6 C6             1.1335     2.1158    -0.1205 C.ar    
   7 N7             3.7118    -0.2986     0.0942 N.2     
   8 C8             4.4605     0.7759     0.0414 C.2     
   9 N9             3.6682     1.8895    -0.0487 N.pl3   
  10 C10            5.9375     0.7846     0.0747 C.2     
  11 C11            6.7737    -0.3520     0.1672 C.2     
  12 C12            8.0587     0.0792     0.1680 C.2     
  13 N13            8.0432     1.4352     0.0795 N.pl3   
  14 N14            6.7079     1.8533     0.0175 N.2     
  15 N15            6.3488    -1.6882     0.2453 N.am    
  16 C16            7.2571    -2.6803     0.3300 C.2     
  17 C17            6.8107    -4.0840     0.4119 C.ar    
  18 O18            8.4447    -2.4183     0.3388 O.2     
  19 C19            6.2004    -6.1450    -0.6697 C.ar    
  20 C20            5.9717    -6.7227     0.5660 C.ar    
  21 C21            6.1535    -5.9903     1.7250 C.ar    
  22 C22            6.5715    -4.6746     1.6575 C.ar    
  23 C23            6.6188    -4.8305    -0.7557 C.ar    
  24 F24            6.8412    -4.2680    -1.9637 F       
  25 F25            6.7489    -3.9610     2.7909 F       
  26 C26           -1.2679    -0.7576     0.0101 C.2     
  27 N27           -2.3288    -0.2828     0.6924 N.am    
  28 C28           -3.6350    -0.9574     0.6270 C.3     
  29 C29           -2.2137     0.9219     1.5295 C.3     
  30 C30           -2.7874     0.6045     2.9151 C.3     
  31 O31           -4.0998     0.0573     2.7671 O.3     
  32 C32           -4.1366    -1.1795     2.0585 C.3     
  33 O33           -1.3527    -1.8123    -0.5886 O.2     
  34 H34           -0.9766     1.9163    -0.1602 H       
  35 H35            1.2349    -1.7477     0.1321 H       
  36 H36            1.1023     3.1931    -0.1910 H       
  37 H37            3.9726     2.8090    -0.1014 H       
  38 H38            8.9387    -0.5440     0.2285 H       
  39 H39            8.8219     2.0132     0.0594 H       
  40 H40            5.4016    -1.8971     0.2382 H       
  41 H41            6.0564    -6.7242    -1.5698 H       
  42 H42            5.6446    -7.7502     0.6260 H       
  43 H43            5.9724    -6.4490     2.6858 H       
  44 H44           -4.3436    -0.3334     0.0824 H       
  45 H45           -3.5275    -1.9176     0.1226 H       
  46 H46           -1.1654     1.2056     1.6223 H       
  47 H47           -2.7767     1.7384     1.0772 H       
  48 H48           -2.1458    -0.1192     3.4178 H       
  49 H49           -2.8387     1.5189     3.5061 H       
  50 H50           -5.1609    -1.5508     2.0272 H       
  51 H51           -3.5001    -1.9068     2.5623 H       
@<TRIPOS>BOND
   1    1    2 ar
   2    1    6 ar
   3    1   34 1
   4    2    3 ar
   5    2   26 1
   6    3    4 ar
   7    3   35 1
   8    4    5 ar
   9    4    7 1
  10    5    6 ar
  11    5    9 1
  12    6   36 1
  13    7    8 2
  14    8    9 1
  15    8   10 1
  16    9   37 1
  17   10   11 1
  18   10   14 2
  19   11   12 2
  20   11   15 1
  21   12   13 1
  22   12   38 1
  23   13   14 1
  24   13   39 1
  25   15   16 am
  26   15   40 1
  27   16   17 1
  28   16   18 2
  29   17   22 ar
  30   17   23 ar
  31   19   20 ar
  32   19   23 ar
  33   19   41 1
  34   20   21 ar
  35   20   42 1
  36   21   22 ar
  37   21   43 1
  38   22   25 1
  39   23   24 1
  40   26   27 am
  41   26   33 2
  42   27   28 1
  43   27   29 1
  44   28   32 1
  45   28   44 1
  46   28   45 1
  47   29   30 1
  48   29   46 1
  49   29   47 1
  50   30   31 1
  51   30   48 1
  52   30   49 1
  53   31   32 1
  54   32   50 1
  55   32   51 1

#	End of record

