#	Name: ASD01320012
#	Creating user name:	WinNT
#	Creation time:	15. 06. 2019 19:15

#	Modifying user name:	WinNT
#	Modification time:	15. 06. 2019 19:15

#	Program:	/corina/corina34_cracker 3.40 0067  02.08.2006

@<TRIPOS>MOLECULE
ASD01320012
  59   62    0    0    0
SMALL
NO_CHARGES


@<TRIPOS>ATOM
   1 C1            -0.1514     1.6177     0.1304 C.ar    
   2 C2            -0.1565     0.2371     0.0792 C.ar    
   3 C3             1.0400    -0.4612     0.0437 C.ar    
   4 C4             2.2501     0.2299     0.0593 C.ar    
   5 C5             2.2538     1.6156     0.1102 C.ar    
   6 C6             1.0527     2.3101     0.1461 C.ar    
   7 O7             1.0334    -1.8203    -0.0057 O.3     
   8 C8            -0.1624    -2.4551     0.0834 C.ar    
   9 C9            -1.0230    -2.4658    -1.0076 C.ar    
  10 C10           -2.2481    -3.1161    -0.9180 C.ar    
  11 C11           -2.6089    -3.7611     0.2817 C.ar    
  12 C12           -1.7343    -3.7413     1.3672 C.ar    
  13 C13           -0.5190    -3.0969     1.2637 C.ar    
  14 N14            3.4600    -0.4738     0.0240 N.am    
  15 C15            4.5795     0.0853     0.5246 C.2     
  16 C16            5.8799    -0.6009     0.3727 C.ar    
  17 O17            4.5198     1.1539     1.1012 O.2     
  18 C18            7.0411    -0.0248     0.8899 C.ar    
  19 C19            8.2517    -0.6706     0.7446 C.ar    
  20 C20            8.3160    -1.8865     0.0880 C.ar    
  21 C21            7.1686    -2.4630    -0.4276 C.ar    
  22 C22            5.9510    -1.8310    -0.2838 C.ar    
  23 N23            1.0547     3.7092     0.1975 N.am    
  24 C24            0.0107     4.3650     0.7421 C.2     
  25 O25           -0.8826     3.7428     1.2832 O.2     
  26 C26           -0.0480     5.8407     0.6815 C.ar    
  27 C27           -1.1278     6.5230     1.2446 C.ar    
  28 C28           -1.1765     7.9004     1.1845 C.ar    
  29 C29           -0.1581     8.6055     0.5679 C.ar    
  30 C30            0.9148     7.9353     0.0074 C.ar    
  31 C31            0.9789     6.5585     0.0660 C.ar    
  32 C32           -3.9073    -4.4544     0.3888 C.2     
  33 O33           -4.9417    -3.8221     0.3114 O.2     
  34 O34           -3.9455    -5.7887     0.5725 O.3     
  35 N35            9.4843    -0.0608     1.2921 N.pl3   
  36 O36            9.4292     1.0099     1.8701 O.2     
  37 O37           10.5537    -0.6297     1.1646 O.2     
  38 C38           -3.1683    -3.1304    -2.0755 C.2     
  39 O39           -4.2735    -3.6220    -1.9665 O.2     
  40 O40           -2.7807    -2.5984    -3.2507 O.3     
  41 H41           -1.0853     2.1597     0.1537 H       
  42 H42           -1.0942    -0.2987     0.0671 H       
  43 H43            3.1901     2.1538     0.1227 H       
  44 H44           -0.7403    -1.9691    -1.9240 H       
  45 H45           -2.0069    -4.2341     2.2887 H       
  46 H46            0.1555    -3.0840     2.1071 H       
  47 H47            3.4925    -1.3636    -0.3608 H       
  48 H48            6.9922     0.9246     1.4025 H       
  49 H49            9.2662    -2.3878    -0.0231 H       
  50 H50            7.2257    -3.4123    -0.9395 H       
  51 H51            5.0561    -2.2821    -0.6863 H       
  52 H52            1.8074     4.2065    -0.1588 H       
  53 H53           -1.9235     5.9738     1.7259 H       
  54 H54           -2.0115     8.4295     1.6194 H       
  55 H55           -0.2011     9.6837     0.5235 H       
  56 H56            1.7061     8.4916    -0.4731 H       
  57 H57            1.8170     6.0366    -0.3716 H       
  58 H58           -4.8191    -6.1982     0.6368 H       
  59 H59           -3.4166    -2.6311    -3.9784 H       
@<TRIPOS>BOND
   1    1    2 ar
   2    1    6 ar
   3    1   41 1
   4    2    3 ar
   5    2   42 1
   6    3    4 ar
   7    3    7 1
   8    4    5 ar
   9    4   14 1
  10    5    6 ar
  11    5   43 1
  12    6   23 1
  13    7    8 1
  14    8    9 ar
  15    8   13 ar
  16    9   10 ar
  17    9   44 1
  18   10   11 ar
  19   10   38 1
  20   11   12 ar
  21   11   32 1
  22   12   13 ar
  23   12   45 1
  24   13   46 1
  25   14   15 am
  26   14   47 1
  27   15   16 1
  28   15   17 2
  29   16   18 ar
  30   16   22 ar
  31   18   19 ar
  32   18   48 1
  33   19   20 ar
  34   19   35 1
  35   20   21 ar
  36   20   49 1
  37   21   22 ar
  38   21   50 1
  39   22   51 1
  40   23   24 am
  41   23   52 1
  42   24   25 2
  43   24   26 1
  44   26   27 ar
  45   26   31 ar
  46   27   28 ar
  47   27   53 1
  48   28   29 ar
  49   28   54 1
  50   29   30 ar
  51   29   55 1
  52   30   31 ar
  53   30   56 1
  54   31   57 1
  55   32   33 2
  56   32   34 1
  57   34   58 1
  58   35   36 2
  59   35   37 2
  60   38   39 2
  61   38   40 1
  62   40   59 1

#	End of record

