#	Name: ASD07930815
#	Creating user name:	WinNT
#	Creation time:	15. 06. 2019 21:13

#	Modifying user name:	WinNT
#	Modification time:	15. 06. 2019 21:13

#	Program:	/corina/corina34_cracker 3.40 0067  02.08.2006

@<TRIPOS>MOLECULE
ASD07930815
  39   40    0    0    0
SMALL
NO_CHARGES


@<TRIPOS>ATOM
   1 C1            -0.0169     1.3926     0.0097 C.ar    
   2 C2             0.0021    -0.0041     0.0020 C.ar    
   3 N3             1.1295     2.0686     0.0024 N.ar    
   4 N4             1.1552    -0.6451    -0.0124 N.ar    
   5 C5             2.2909     0.0325    -0.0196 C.ar    
   6 C6             2.2773     1.4168    -0.0121 C.ar    
   7 C7            -1.3056     2.1172     0.0198 C.2     
   8 N8            -2.4986     1.5655     0.0229 N.2     
   9 C9            -3.4285     2.5255     0.0328 C.2     
  10 C10           -2.8037     3.7236     0.0361 C.2     
  11 N11           -1.4597     3.4739     0.0334 N.pl3   
  12 C12           -0.3879     4.4726     0.0405 C.3     
  13 O13           -0.0426     4.8104    -1.3043 O.3     
  14 C14            0.9994     5.7826    -1.4102 C.3     
  15 C15            1.2845     6.0660    -2.8864 C.3     
  16 Si16           2.6429     7.3335    -3.0244 Si      
  17 C17            4.1855     6.6819    -2.2080 C.3     
  18 C18            2.9900     7.6785    -4.8220 C.3     
  19 C19            2.1115     8.9075    -2.1813 C.3     
  20 Br20          -3.6317     5.4236     0.0490 Br      
  21 H21           -0.9250    -0.5580     0.0083 H       
  22 H22            3.2326    -0.4961    -0.0315 H       
  23 H23            3.2080     1.9648    -0.0184 H       
  24 H24           -4.4972     2.3701     0.0371 H       
  25 H25           -0.7275     5.3663     0.5639 H       
  26 H26            0.4859     4.0642     0.5483 H       
  27 H27            0.6885     6.7036    -0.9169 H       
  28 H28            1.9019     5.4014    -0.9325 H       
  29 H29            1.5954     5.1451    -3.3797 H       
  30 H30            0.3819     6.4472    -3.3641 H       
  31 H31            4.4964     5.7609    -2.7012 H       
  32 H32            4.9802     7.4234    -2.2887 H       
  33 H33            3.9824     6.4800    -1.1562 H       
  34 H34            2.0875     8.0597    -5.2997 H       
  35 H35            3.7848     8.4201    -4.9027 H       
  36 H36            3.3009     6.7576    -5.3153 H       
  37 H37            1.9084     8.7056    -1.1296 H       
  38 H38            2.9063     9.6491    -2.2620 H       
  39 H39            1.2090     9.2887    -2.6590 H       
@<TRIPOS>BOND
   1    1    2 ar
   2    1    3 ar
   3    1    7 1
   4    2    4 ar
   5    2   21 1
   6    3    6 ar
   7    4    5 ar
   8    5    6 ar
   9    5   22 1
  10    6   23 1
  11    7    8 2
  12    7   11 1
  13    8    9 1
  14    9   10 2
  15    9   24 1
  16   10   11 1
  17   10   20 1
  18   11   12 1
  19   12   13 1
  20   12   25 1
  21   12   26 1
  22   13   14 1
  23   14   15 1
  24   14   27 1
  25   14   28 1
  26   15   16 1
  27   15   29 1
  28   15   30 1
  29   16   17 1
  30   16   18 1
  31   16   19 1
  32   17   31 1
  33   17   32 1
  34   17   33 1
  35   18   34 1
  36   18   35 1
  37   18   36 1
  38   19   37 1
  39   19   38 1
  40   19   39 1

#	End of record

