#	Name: ASD08150363
#	Creating user name:	WinNT
#	Creation time:	15. 06. 2019 21:15

#	Modifying user name:	WinNT
#	Modification time:	15. 06. 2019 21:15

#	Program:	/corina/corina34_cracker 3.40 0067  02.08.2006

@<TRIPOS>MOLECULE
ASD08150363
  46   50    0    0    0
SMALL
NO_CHARGES


@<TRIPOS>ATOM
   1 N1             3.7421     5.3565   -12.5531 N.am    
   2 C2             4.2650     4.5865   -13.5270 C.2     
   3 C3             5.4017     3.7882   -13.2866 C.2     
   4 C4             5.9876     3.7849   -12.0622 C.2     
   5 C5             5.4401     4.5939   -11.0352 C.ar    
   6 C6             6.0089     4.6273    -9.7477 C.ar    
   7 N7             5.5014     5.3742    -8.8020 N.ar    
   8 C8             4.4213     6.1452    -8.9983 C.ar    
   9 C9             3.7838     6.1744   -10.2632 C.ar    
  10 C10            4.3079     5.3772   -11.3079 C.ar    
  11 C11            2.6582     6.9804   -10.4574 C.ar    
  12 C12            2.1767     7.7449    -9.4060 C.ar    
  13 C13            2.8135     7.7110    -8.1570 C.ar    
  14 C14            3.9092     6.9320    -7.9533 C.ar    
  15 O15            3.7479     4.5797   -14.6311 O.2     
  16 C16            0.9839     8.6022    -9.6030 C.ar    
  17 C17            2.6157     6.1451   -12.8188 C.ar    
  18 C18            2.7702     7.4669   -13.2163 C.ar    
  19 C19            1.6584     8.2426   -13.4782 C.ar    
  20 C20            0.3895     7.7034   -13.3447 C.ar    
  21 C21            0.2332     6.3859   -12.9481 C.ar    
  22 C22            1.3430     5.6050   -12.6906 C.ar    
  23 F23           -0.6971     8.4640   -13.6015 F       
  24 C24           -0.0713     8.1716   -10.4102 C.ar    
  25 N25           -1.1314     8.9269   -10.5894 N.ar    
  26 C26           -1.2445    10.1203   -10.0161 C.ar    
  27 C27           -0.2305    10.6181    -9.1957 C.ar    
  28 C28            0.8978     9.8507    -8.9782 C.ar    
  29 C29           -2.4204    10.9054   -10.2429 C.1     
  30 N30           -3.3532    11.5283   -10.4229 N.1     
  31 C31           -1.1485     5.8022   -12.8027 C.3     
  32 F32           -1.0503     4.4676   -12.3949 F       
  33 F33           -1.8642     6.5306   -11.8464 F       
  34 F34           -1.8136     5.8666   -14.0318 F       
  35 H35            5.8076     3.1770   -14.0791 H       
  36 H36            6.8582     3.1744   -11.8732 H       
  37 H37            6.8801     4.0248    -9.5373 H       
  38 H38            2.1677     7.0076   -11.4192 H       
  39 H39            2.4288     8.3119    -7.3462 H       
  40 H40            4.3867     6.9174    -6.9847 H       
  41 H41            3.7594     7.8879   -13.3202 H       
  42 H42            1.7781     9.2705   -13.7871 H       
  43 H43            1.2207     4.5762   -12.3855 H       
  44 H44           -0.0152     7.2071   -10.8929 H       
  45 H45           -0.3288    11.5891    -8.7332 H       
  46 H46            1.6979    10.2100    -8.3480 H       
@<TRIPOS>BOND
   1    1    2 am
   2    1   10 1
   3    1   17 1
   4    2    3 1
   5    2   15 2
   6    3    4 2
   7    3   35 1
   8    4    5 1
   9    4   36 1
  10    5    6 ar
  11    5   10 ar
  12    6    7 ar
  13    6   37 1
  14    7    8 ar
  15    8    9 ar
  16    8   14 ar
  17    9   10 ar
  18    9   11 ar
  19   11   12 ar
  20   11   38 1
  21   12   13 ar
  22   12   16 1
  23   13   14 ar
  24   13   39 1
  25   14   40 1
  26   16   24 ar
  27   16   28 ar
  28   17   18 ar
  29   17   22 ar
  30   18   19 ar
  31   18   41 1
  32   19   20 ar
  33   19   42 1
  34   20   21 ar
  35   20   23 1
  36   21   22 ar
  37   21   31 1
  38   22   43 1
  39   24   25 ar
  40   24   44 1
  41   25   26 ar
  42   26   27 ar
  43   26   29 1
  44   27   28 ar
  45   27   45 1
  46   28   46 1
  47   29   30 3
  48   31   32 1
  49   31   33 1
  50   31   34 1

#	End of record

