#	Name: ASD02039029
#	Creating user name:	WinNT
#	Creation time:	15. 06. 2019 20:17

#	Modifying user name:	WinNT
#	Modification time:	15. 06. 2019 20:17

#	Program:	/corina/corina34_cracker 3.40 0067  02.08.2006

@<TRIPOS>MOLECULE
ASD02039029
  36   39    0    0    0
SMALL
NO_CHARGES


@<TRIPOS>ATOM
   1 N1             0.0234     1.2846    -0.3607 N.2     
   2 N2             0.0398    -0.0019    -0.3619 N.2     
   3 C3             1.2243     1.7332    -0.0875 C.2     
   4 O4             2.0203     0.6621     0.0883 O.3     
   5 C5             1.2410    -0.4221    -0.0920 C.2     
   6 N6             1.6034     3.0607     0.0028 N.pl3   
   7 C7             0.6404     4.0705    -0.0881 C.ar    
   8 C8             1.6810    -1.8604     0.0020 C.3     
   9 O9             2.1171    -2.3100    -1.2824 O.3     
  10 C10            2.5500    -3.5959    -1.3721 C.ar    
  11 C11            2.9840    -4.0903    -2.5841 C.ar    
  12 C12            2.5579    -4.4051    -0.2375 C.ar    
  13 C13            2.9889    -5.6991    -0.3054 C.ar    
  14 C14            3.4280    -6.2254    -1.5172 C.ar    
  15 C15            3.4285    -5.4147    -2.6684 C.ar    
  16 C16           -0.6619     3.8293     0.3296 C.ar    
  17 C17            0.9861     5.3185    -0.5910 C.ar    
  18 C18            0.0337     6.3145    -0.6795 C.ar    
  19 C19           -1.2647     6.0710    -0.2673 C.ar    
  20 C20           -1.6116     4.8296     0.2389 C.ar    
  21 Cl21          -3.2414     4.5278     0.7550 Cl      
  22 Cl22          -2.4592     7.3257    -0.3795 Cl      
  23 N23            3.9081    -7.4529    -1.8993 N.pl3   
  24 N24            4.2026    -7.4227    -3.2663 N.2     
  25 C25            3.9363    -6.2453    -3.7555 C.2     
  26 H26            2.5371     3.2910     0.1292 H       
  27 H27            2.5020    -1.9434     0.7141 H       
  28 H28            0.8455    -2.4747     0.3376 H       
  29 H29            2.9807    -3.4606    -3.4615 H       
  30 H30            2.2195    -4.0041     0.7064 H       
  31 H31            2.9896    -6.3147     0.5820 H       
  32 H32           -0.9324     2.8611     0.7244 H       
  33 H33            1.9994     5.5098    -0.9123 H       
  34 H34            0.3025     7.2847    -1.0705 H       
  35 H35            4.0248    -8.2184    -1.3152 H       
  36 H36            4.0669    -5.9388    -4.7828 H       
@<TRIPOS>BOND
   1    1    2 1
   2    1    3 2
   3    2    5 2
   4    3    4 1
   5    3    6 1
   6    4    5 1
   7    5    8 1
   8    6    7 1
   9    6   26 1
  10    7   16 ar
  11    7   17 ar
  12    8    9 1
  13    8   27 1
  14    8   28 1
  15    9   10 1
  16   10   11 ar
  17   10   12 ar
  18   11   15 ar
  19   11   29 1
  20   12   13 ar
  21   12   30 1
  22   13   14 ar
  23   13   31 1
  24   14   15 ar
  25   14   23 1
  26   15   25 1
  27   16   20 ar
  28   16   32 1
  29   17   18 ar
  30   17   33 1
  31   18   19 ar
  32   18   34 1
  33   19   20 ar
  34   19   22 1
  35   20   21 1
  36   23   24 1
  37   23   35 1
  38   24   25 2
  39   25   36 1

#	End of record

