#	Name: ASD01881988
#	Creating user name:	WinNT
#	Creation time:	15. 06. 2019 19:43

#	Modifying user name:	WinNT
#	Modification time:	15. 06. 2019 19:43

#	Program:	/corina/corina34_cracker 3.40 0067  02.08.2006

@<TRIPOS>MOLECULE
ASD01881988
  58   61    0    0    0
SMALL
NO_CHARGES


@<TRIPOS>ATOM
   1 C1            -0.0168     1.3853     0.0097 C.ar    
   2 C2             0.0021    -0.0041     0.0020 C.ar    
   3 C3             1.2223    -0.6805    -0.0132 C.ar    
   4 C4             2.4213     0.0479    -0.0208 C.ar    
   5 C5             2.3889     1.4351    -0.0130 C.ar    
   6 C6             1.1818     2.1009     0.0021 C.ar    
   7 C7            -1.3121     2.1090     0.0197 C.ar    
   8 C8            -1.3347     3.5024     0.0274 C.ar    
   9 C9            -2.5422     4.1703     0.0368 C.ar    
  10 C10           -3.7289     3.4592     0.0386 C.ar    
  11 C11           -3.7124     2.0763     0.0314 C.ar    
  12 C12           -2.5103     1.3980     0.0157 C.ar    
  13 C13            1.2515    -2.1544    -0.0210 C.2     
  14 O14            2.3156    -2.7409    -0.0342 O.2     
  15 O15            0.0982    -2.8512    -0.0133 O.3     
  16 O16            3.6109    -0.6031    -0.0351 O.3     
  17 C17           -2.5683     5.6770     0.0456 C.3     
  18 O18           -2.5826     6.1611    -1.2989 O.3     
  19 N19           -2.6808    11.5596    -2.2749 N.pl3   
  20 N20           -2.6845    11.4958    -3.5615 N.2     
  21 N21           -2.6648    10.2784    -3.9772 N.2     
  22 C22           -2.6464     9.4482    -2.9195 C.ar    
  23 C23           -2.6565    10.2764    -1.7843 C.ar    
  24 C24           -2.6218     8.0465    -2.7579 C.ar    
  25 C25           -2.6067     7.5074    -1.4688 C.ar    
  26 C26           -2.6167     8.3463    -0.3591 C.ar    
  27 C27           -2.6416     9.7146    -0.5121 C.ar    
  28 C28           -2.6937    12.7865    -1.4743 C.3     
  29 C29           -4.1405    13.1947    -1.1900 C.3     
  30 C30           -4.8442    12.0757    -0.4197 C.3     
  31 C31           -4.1540    14.4760    -0.3540 C.3     
  32 C32           -4.8702    13.4407    -2.5121 C.3     
  33 C33           -2.6116     7.1860    -3.9025 C.1     
  34 N34           -2.6035     6.5034    -4.8105 N.1     
  35 H35           -0.9247    -0.5585     0.0082 H       
  36 H36            3.3123     1.9951    -0.0188 H       
  37 H37            1.1634     3.1807     0.0080 H       
  38 H38           -0.4089     4.0585     0.0264 H       
  39 H39           -4.6717     3.9859     0.0459 H       
  40 H40           -4.6418     1.5261     0.0332 H       
  41 H41           -2.4985     0.3181     0.0053 H       
  42 H42            0.1680    -3.8157    -0.0188 H       
  43 H43            3.9477    -0.7874    -0.9227 H       
  44 H44           -3.4620     6.0219     0.5655 H       
  45 H45           -1.6823     6.0527     0.5575 H       
  46 H46           -2.6053     7.9198     0.6331 H       
  47 H47           -2.6491    10.3535     0.3585 H       
  48 H48           -2.1738    12.6112    -0.5325 H       
  49 H49           -2.1923    13.5837    -2.0232 H       
  50 H50           -4.3244    11.9004     0.5222 H       
  51 H51           -5.8750    12.3666    -0.2171 H       
  52 H52           -4.8346    11.1629    -1.0153 H       
  53 H53           -3.6526    15.2733    -0.9028 H       
  54 H54           -5.1847    14.7669    -0.1514 H       
  55 H55           -3.6341    14.3008     0.5879 H       
  56 H56           -4.8606    12.5279    -3.1077 H       
  57 H57           -5.9009    13.7316    -2.3096 H       
  58 H58           -4.3689    14.2380    -3.0609 H       
@<TRIPOS>BOND
   1    1    2 ar
   2    1    6 ar
   3    1    7 1
   4    2    3 ar
   5    2   35 1
   6    3    4 ar
   7    3   13 1
   8    4    5 ar
   9    4   16 1
  10    5    6 ar
  11    5   36 1
  12    6   37 1
  13    7    8 ar
  14    7   12 ar
  15    8    9 ar
  16    8   38 1
  17    9   10 ar
  18    9   17 1
  19   10   11 ar
  20   10   39 1
  21   11   12 ar
  22   11   40 1
  23   12   41 1
  24   13   14 2
  25   13   15 1
  26   15   42 1
  27   16   43 1
  28   17   18 1
  29   17   44 1
  30   17   45 1
  31   18   25 1
  32   19   20 1
  33   19   23 1
  34   19   28 1
  35   20   21 2
  36   21   22 1
  37   22   23 ar
  38   22   24 ar
  39   23   27 ar
  40   24   25 ar
  41   24   33 1
  42   25   26 ar
  43   26   27 ar
  44   26   46 1
  45   27   47 1
  46   28   29 1
  47   28   48 1
  48   28   49 1
  49   29   30 1
  50   29   31 1
  51   29   32 1
  52   30   50 1
  53   30   51 1
  54   30   52 1
  55   31   53 1
  56   31   54 1
  57   31   55 1
  58   32   56 1
  59   32   57 1
  60   32   58 1
  61   33   34 3

#	End of record

