#	Name: ASD05273007
#	Creating user name:	WinNT
#	Creation time:	15. 06. 2019 20:58

#	Modifying user name:	WinNT
#	Modification time:	15. 06. 2019 20:58

#	Program:	/corina/corina34_cracker 3.40 0067  02.08.2006

@<TRIPOS>MOLECULE
ASD05273007
  12   11    0    0    0
SMALL
NO_CHARGES


@<TRIPOS>ATOM
   1 C1            -0.0187     1.5258     0.0104 C.3     
   2 C2             0.0021    -0.0041     0.0020 C.3     
   3 O3             1.3220     2.0204     0.0003 O.3     
   4 C4            -1.4333    -0.5336     0.0129 C.3     
   5 H5            -0.5459     1.8868    -0.8726 H       
   6 H6            -0.5289     1.8773     0.9072 H       
   7 H7             0.5123    -0.3556    -0.8948 H       
   8 H8             0.5293    -0.3651     0.8851 H       
   9 H9             1.3852     2.9853     0.0049 H       
  10 H10           -1.9435    -0.1821     0.9097 H       
  11 H11           -1.9605    -0.1726    -0.8702 H       
  12 H12           -1.4185    -1.6235     0.0069 H       
@<TRIPOS>BOND
   1    1    2 1
   2    1    3 1
   3    1    5 1
   4    1    6 1
   5    2    4 1
   6    2    7 1
   7    2    8 1
   8    3    9 1
   9    4   10 1
  10    4   11 1
  11    4   12 1

#	End of record

