#	Name: ASD01882189
#	Creating user name:	WinNT
#	Creation time:	15. 06. 2019 19:44

#	Modifying user name:	WinNT
#	Modification time:	15. 06. 2019 19:44

#	Program:	/corina/corina34_cracker 3.40 0067  02.08.2006

@<TRIPOS>MOLECULE
ASD01882189
  21   22    0    0    0
SMALL
NO_CHARGES


@<TRIPOS>ATOM
   1 C1            -0.0170     1.4058     0.0098 C.2     
   2 C2             0.0021    -0.0041     0.0020 C.2     
   3 C3             1.1985    -0.6544    -0.0129 C.2     
   4 C4             2.3927     0.0863    -0.0203 C.2     
   5 C5             2.3573     1.4350    -0.0123 C.2     
   6 N6             1.1649     2.0998     0.0022 N.pl3   
   7 N7            -1.0091     2.2849     0.0293 N.2     
   8 C8            -0.5007     3.5195     0.0287 C.2     
   9 C9             0.8473     3.4309     0.0129 C.2     
  10 C10            1.8194     4.5825     0.0107 C.3     
  11 C11            2.0655     5.0449     1.4482 C.3     
  12 F12            2.5971     3.9872     2.1938 F       
  13 F13            2.9679     6.1139     1.4462 F       
  14 F14            0.8564     5.4564     2.0191 F       
  15 I15            1.2585    -2.7485    -0.0240 I       
  16 Cl16          -1.4839    -0.9015     0.0120 Cl      
  17 H17            3.3432    -0.4264    -0.0322 H       
  18 H18            3.2813     1.9943    -0.0178 H       
  19 H19           -1.0718     4.4360     0.0420 H       
  20 H20            2.7615     4.2618    -0.4341 H       
  21 H21            1.4052     5.4065    -0.5702 H       
@<TRIPOS>BOND
   1    1    2 1
   2    1    6 1
   3    1    7 2
   4    2    3 2
   5    2   16 1
   6    3    4 1
   7    3   15 1
   8    4    5 2
   9    4   17 1
  10    5    6 1
  11    5   18 1
  12    6    9 1
  13    7    8 1
  14    8    9 2
  15    8   19 1
  16    9   10 1
  17   10   11 1
  18   10   20 1
  19   10   21 1
  20   11   12 1
  21   11   13 1
  22   11   14 1

#	End of record

