#	Name: ASD03240303
#	Creating user name:	WinNT
#	Creation time:	15. 06. 2019 20:34

#	Modifying user name:	WinNT
#	Modification time:	15. 06. 2019 20:34

#	Program:	/corina/corina34_cracker 3.40 0067  02.08.2006

@<TRIPOS>MOLECULE
ASD03240303
  84   89    0    0    0
SMALL
NO_CHARGES


@<TRIPOS>ATOM
   1 C1            -0.3044     1.1036    -1.5122 C.2     
   2 N2            -0.1749    -0.1628    -0.9931 N.pl3   
   3 O3            -3.6651     3.2296    -1.1194 O.2     
   4 C4            -3.7598     2.1422    -0.5908 C.2     
   5 C5            -2.5975     1.1835    -0.6259 C.3     
   6 N6            -1.4814     1.7956    -1.3509 N.pl3   
   7 N7             0.6905     1.6503    -2.1527 N.2     
   8 N8            -4.9045     1.7911     0.0280 N.am    
   9 C9            -5.9376     2.7160     0.1585 C.ar    
  10 C10           -7.2719     2.2886     0.1042 C.ar    
  11 C11           -8.2992     3.2138     0.2347 C.ar    
  12 C12           -7.9973     4.5637     0.4192 C.ar    
  13 C13           -6.6638     4.9804     0.4720 C.ar    
  14 C14           -5.6456     4.0611     0.3482 C.ar    
  15 C15           -9.0855     5.5512     0.5580 C.2     
  16 N16           -8.7937     6.8549     0.7361 N.am    
  17 O17          -10.2452     5.1886     0.5116 O.2     
  18 C18           -9.8206     7.8076     0.7451 C.ar    
  19 C19           -9.6527     9.0029     1.4318 C.ar    
  20 C20          -11.0041     7.5591     0.0625 C.ar    
  21 C21          -12.0163     8.4980     0.0712 C.ar    
  22 C22          -11.8507     9.6911     0.7627 C.ar    
  23 C23          -10.6647     9.9419     1.4406 C.ar    
  24 N24          -12.8761    10.6427     0.7713 N.pl3   
  25 C25          -12.7015    11.9012     1.5006 C.3     
  26 C26          -14.1246    10.3809     0.0508 C.3     
  27 C27           -7.5852     0.8526    -0.0926 C.ar    
  28 C28           -6.9693     0.1422    -1.1356 C.ar    
  29 C29           -7.2396    -1.1735    -1.3372 C.ar    
  30 C30           -8.1463    -1.8417    -0.4954 C.ar    
  31 C31           -8.7739    -1.1345     0.5614 C.ar    
  32 C32           -8.4771     0.2230     0.7560 C.ar    
  33 C33          -15.0997     9.6912     0.9698 C.ar    
  34 C34          -12.0946    12.9326     0.5847 C.ar    
  35 C35          -15.9711    10.4387     1.7397 C.ar    
  36 C36          -16.8655     9.8061     2.5827 C.ar    
  37 C37          -16.8888     8.4258     2.6555 C.ar    
  38 C38          -16.0180     7.6782     1.8850 C.ar    
  39 C39          -15.1265     8.3108     1.0388 C.ar    
  40 C40          -12.9118    13.7523    -0.1710 C.ar    
  41 C41          -12.3551    14.6983    -1.0112 C.ar    
  42 C42          -10.9812    14.8250    -1.0953 C.ar    
  43 C43          -10.1639    14.0060    -0.3389 C.ar    
  44 C44          -10.7207    13.0629     0.5045 C.ar    
  45 C45           -8.4432    -3.2023    -0.6835 C.ar    
  46 C46           -9.3256    -3.8214     0.1477 C.ar    
  47 C47           -9.9424    -3.1264     1.1865 C.ar    
  48 C48           -9.6801    -1.8083     1.3997 C.ar    
  49 H49            0.6569    -0.6495    -1.1034 H       
  50 H50           -0.9153    -0.5697    -0.5164 H       
  51 H51           -2.2861     0.9527     0.3929 H       
  52 H52           -2.8988     0.2656    -1.1305 H       
  53 H53           -1.5728     2.6892    -1.7172 H       
  54 H54            1.5223     1.1636    -2.2630 H       
  55 H55           -5.0088     0.8942     0.3825 H       
  56 H56           -9.3286     2.8896     0.1932 H       
  57 H57           -6.4314     6.0255     0.6145 H       
  58 H58           -4.6171     4.3880     0.3897 H       
  59 H59           -7.8726     7.1335     0.8582 H       
  60 H60           -8.7306     9.1978     1.9592 H       
  61 H61          -11.1327     6.6315    -0.4755 H       
  62 H62          -12.9366     8.3049    -0.4599 H       
  63 H63          -10.5360    10.8695     1.9787 H       
  64 H64          -13.6705    12.2540     1.8537 H       
  65 H65          -12.0415    11.7387     2.3528 H       
  66 H66          -14.5517    11.3238    -0.2906 H       
  67 H67          -13.9210     9.7419    -0.8085 H       
  68 H68           -6.2718     0.6488    -1.7861 H       
  69 H69           -6.7584    -1.7062    -2.1442 H       
  70 H70           -8.9475     0.7737     1.5571 H       
  71 H71          -15.9529    11.5171     1.6828 H       
  72 H72          -17.5458    10.3902     3.1847 H       
  73 H73          -17.5871     7.9316     3.3147 H       
  74 H74          -16.0360     6.5999     1.9422 H       
  75 H75          -14.4462     7.7267     0.4368 H       
  76 H76          -13.9853    13.6533    -0.1053 H       
  77 H77          -12.9936    15.3382    -1.6022 H       
  78 H78          -10.5462    15.5637    -1.7523 H       
  79 H79           -9.0905    14.1048    -0.4049 H       
  80 H80          -10.0822    12.4230     1.0955 H       
  81 H81           -7.9735    -3.7542    -1.4843 H       
  82 H82           -9.5514    -4.8671    -0.0003 H       
  83 H83          -10.6387    -3.6416     1.8316 H       
  84 H84          -10.1651    -1.2823     2.2087 H       
@<TRIPOS>BOND
   1    1    2 1
   2    1    7 2
   3    1    6 1
   4    2   49 1
   5    2   50 1
   6    3    4 2
   7    4    5 1
   8    4    8 am
   9    5    6 1
  10    5   51 1
  11    5   52 1
  12    6   53 1
  13    7   54 1
  14    8    9 1
  15    8   55 1
  16    9   10 ar
  17    9   14 ar
  18   10   11 ar
  19   10   27 1
  20   11   12 ar
  21   11   56 1
  22   12   13 ar
  23   12   15 1
  24   13   14 ar
  25   13   57 1
  26   14   58 1
  27   15   16 am
  28   15   17 2
  29   16   18 1
  30   16   59 1
  31   18   19 ar
  32   18   20 ar
  33   19   23 ar
  34   19   60 1
  35   20   21 ar
  36   20   61 1
  37   21   22 ar
  38   21   62 1
  39   22   23 ar
  40   22   24 1
  41   23   63 1
  42   24   25 1
  43   24   26 1
  44   25   34 1
  45   25   64 1
  46   25   65 1
  47   26   33 1
  48   26   66 1
  49   26   67 1
  50   27   28 ar
  51   27   32 ar
  52   28   29 ar
  53   28   68 1
  54   29   30 ar
  55   29   69 1
  56   30   31 ar
  57   30   45 ar
  58   31   32 ar
  59   31   48 ar
  60   32   70 1
  61   33   35 ar
  62   33   39 ar
  63   34   40 ar
  64   34   44 ar
  65   35   36 ar
  66   35   71 1
  67   36   37 ar
  68   36   72 1
  69   37   38 ar
  70   37   73 1
  71   38   39 ar
  72   38   74 1
  73   39   75 1
  74   40   41 ar
  75   40   76 1
  76   41   42 ar
  77   41   77 1
  78   42   43 ar
  79   42   78 1
  80   43   44 ar
  81   43   79 1
  82   44   80 1
  83   45   46 ar
  84   45   81 1
  85   46   47 ar
  86   46   82 1
  87   47   48 ar
  88   47   83 1
  89   48   84 1

#	End of record

