#	Name: ASD03330462
#	Creating user name:	WinNT
#	Creation time:	15. 06. 2019 20:37

#	Modifying user name:	WinNT
#	Modification time:	15. 06. 2019 20:37

#	Program:	/corina/corina34_cracker 3.40 0067  02.08.2006

@<TRIPOS>MOLECULE
ASD03330462
  57   59    0    0    0
SMALL
NO_CHARGES


@<TRIPOS>ATOM
   1 C1            -1.2881     2.0929    -2.1075 C.3     
   2 N2            -1.1236     0.7056    -1.6514 N.3     
   3 C3            -0.3362    -0.0830    -2.6164 C.3     
   4 C4             0.9149     0.6923    -2.9394 C.2     
   5 N5             1.0782     2.0168    -2.6542 N.pl3   
   6 C6             0.0502     2.8361    -2.0062 C.3     
   7 C7             2.0560     0.2674    -3.5360 C.2     
   8 N8             2.8999     1.3226    -3.6074 N.2     
   9 C9             2.3180     2.3759    -3.0783 C.2     
  10 C10            2.9132     3.7250    -2.9636 C.ar    
  11 C11            2.3282    -1.0978    -4.0191 C.2     
  12 O12            1.4848    -1.9656    -3.8968 O.2     
  13 C13            3.7823    -2.7422    -5.0768 C.3     
  14 N14            3.5117    -1.3849    -4.5965 N.am    
  15 C15           -2.4268     0.0770    -1.3970 C.3     
  16 C16            2.8255     4.4293    -1.7629 C.ar    
  17 C17            4.3051    -3.5974    -3.9209 C.3     
  18 C18            3.2166    -3.7340    -2.8545 C.3     
  19 C19            4.6839    -4.9846    -4.4436 C.3     
  20 C20            5.5378    -2.9290    -3.3088 C.3     
  21 C21            4.8166    -2.6907    -6.1716 C.2     
  22 O22            5.4797    -1.6881    -6.3328 O.2     
  23 N23            5.0049    -3.7590    -6.9715 N.am    
  24 C24            6.0620    -3.7374    -7.9856 C.3     
  25 C25            3.3840     5.6893    -1.6620 C.ar    
  26 C26            4.0297     6.2533    -2.7504 C.ar    
  27 C27            4.1201     5.5603    -3.9437 C.ar    
  28 C28            3.5707     4.2971    -4.0559 C.ar    
  29 F29            3.6602     3.6210    -5.2222 F       
  30 F30            3.2999     6.3728    -0.4997 F       
  31 H31           -1.6267     2.0959    -3.1436 H       
  32 H32           -2.0287     2.5938    -1.4840 H       
  33 H33           -0.0707    -1.0446    -2.1770 H       
  34 H34           -0.9172    -0.2402    -3.5251 H       
  35 H35           -0.0248     3.7992    -2.5110 H       
  36 H36            0.3079     2.9885    -0.9581 H       
  37 H37            2.8630    -3.1800    -5.4658 H       
  38 H38            4.1843    -0.6928    -4.6940 H       
  39 H39           -3.0414     0.1387    -2.2950 H       
  40 H40           -2.2794    -0.9691    -1.1286 H       
  41 H41           -2.9264     0.5952    -0.5785 H       
  42 H42            2.3218     3.9911    -0.9140 H       
  43 H43            2.3384    -4.2102    -3.2906 H       
  44 H44            3.5891    -4.3433    -2.0310 H       
  45 H45            2.9467    -2.7457    -2.4821 H       
  46 H46            5.3626    -4.8810    -5.2902 H       
  47 H47            5.1748    -5.5498    -3.6514 H       
  48 H48            3.7841    -5.5112    -4.7616 H       
  49 H49            5.2679    -1.9407    -2.9365 H       
  50 H50            5.9103    -3.5383    -2.4854 H       
  51 H51            6.3133    -2.8317    -4.0686 H       
  52 H52            4.4406    -4.5420    -6.8758 H       
  53 H53            6.0618    -4.6813    -8.5307 H       
  54 H54            5.8826    -2.9168    -8.6801 H       
  55 H55            7.0281    -3.5982    -7.5005 H       
  56 H56            4.4639     7.2386    -2.6667 H       
  57 H57            4.6247     6.0055    -4.7885 H       
@<TRIPOS>BOND
   1    1    2 1
   2    1    6 1
   3    1   31 1
   4    1   32 1
   5    2    3 1
   6    2   15 1
   7    3    4 1
   8    3   33 1
   9    3   34 1
  10    4    5 1
  11    4    7 2
  12    5    6 1
  13    5    9 1
  14    6   35 1
  15    6   36 1
  16    7    8 1
  17    7   11 1
  18    8    9 2
  19    9   10 1
  20   10   16 ar
  21   10   28 ar
  22   11   12 2
  23   11   14 am
  24   13   14 1
  25   13   17 1
  26   13   21 1
  27   13   37 1
  28   14   38 1
  29   15   39 1
  30   15   40 1
  31   15   41 1
  32   16   25 ar
  33   16   42 1
  34   17   18 1
  35   17   19 1
  36   17   20 1
  37   18   43 1
  38   18   44 1
  39   18   45 1
  40   19   46 1
  41   19   47 1
  42   19   48 1
  43   20   49 1
  44   20   50 1
  45   20   51 1
  46   21   22 2
  47   21   23 am
  48   23   24 1
  49   23   52 1
  50   24   53 1
  51   24   54 1
  52   24   55 1
  53   25   26 ar
  54   25   30 1
  55   26   27 ar
  56   26   56 1
  57   27   28 ar
  58   27   57 1
  59   28   29 1

#	End of record

