#	Name: ASD04910328
#	Creating user name:	WinNT
#	Creation time:	15. 06. 2019 20:55

#	Modifying user name:	WinNT
#	Modification time:	15. 06. 2019 20:55

#	Program:	/corina/corina34_cracker 3.40 0067  02.08.2006

@<TRIPOS>MOLECULE
ASD04910328
  64   66    0    0    0
SMALL
NO_CHARGES


@<TRIPOS>ATOM
   1 C1             0.1211     1.2159    -0.2911 C.ar    
   2 C2             0.3250    -0.1521    -0.3265 C.ar    
   3 C3            -0.7296    -1.0034    -0.5838 C.ar    
   4 C4            -2.0047    -0.4818    -0.8082 C.ar    
   5 C5            -2.2037     0.8992    -0.7706 C.ar    
   6 C6            -1.1414     1.7391    -0.5071 C.ar    
   7 C7             1.2780     2.1398    -0.0099 C.3     
   8 O8             1.1202     3.3437    -0.7635 O.3     
   9 C9             2.2418     3.8783    -1.3144 C.ar    
  10 C10            1.3131     2.4735     1.4828 C.3     
  11 C11            3.4827     3.3222    -1.0365 C.ar    
  12 C12            2.1435     4.9757    -2.1585 C.ar    
  13 C13            3.2802     5.5200    -2.7194 C.ar    
  14 C14            4.5276     4.9675    -2.4377 C.ar    
  15 C15            4.6228     3.8631    -1.5939 C.ar    
  16 C16            5.7530     5.5510    -3.0404 C.2     
  17 C17            6.7711     6.1599    -2.3669 C.2     
  18 N18            7.6878     6.5479    -3.2771 N.pl3   
  19 N19            7.2304     6.1722    -4.5460 N.2     
  20 C20            6.0780     5.5708    -4.4105 C.2     
  21 C21           -3.1395    -1.3881    -1.0851 C.2     
  22 N22           -4.3695    -0.8813    -1.3013 N.am    
  23 O23           -2.9631    -2.5904    -1.1176 O.2     
  24 C24           -5.4939    -1.7794    -1.5756 C.3     
  25 C25           -6.7662    -0.9552    -1.7825 C.3     
  26 C26           -7.9229    -1.8791    -2.0646 C.2     
  27 O27           -7.7476    -3.0741    -2.0970 O.2     
  28 O28           -9.1479    -1.3743    -2.2800 O.3     
  29 C29            2.5575     3.3090     1.7896 C.3     
  30 C30            2.5926     3.6426     3.2823 C.3     
  31 C31            5.2380     5.0065    -5.5272 C.3     
  32 C32            8.9447     7.2428    -2.9881 C.3     
  33 C33            6.8559     6.3629    -0.8761 C.3     
  34 H34            1.3121    -0.5544    -0.1527 H       
  35 H35           -0.5690    -2.0710    -0.6119 H       
  36 H36           -3.1878     1.3091    -0.9434 H       
  37 H37           -1.2940     2.8079    -0.4777 H       
  38 H38            2.2101     1.6521    -0.2952 H       
  39 H39            0.4206     3.0394     1.7497 H       
  40 H40            1.3440     1.5499     2.0609 H       
  41 H41            3.5559     2.4656    -0.3829 H       
  42 H42            1.1762     5.4036    -2.3765 H       
  43 H43            3.2031     6.3735    -3.3767 H       
  44 H44            5.5887     3.4329    -1.3735 H       
  45 H45           -4.5102     0.0780    -1.2754 H       
  46 H46           -5.2856    -2.3581    -2.4755 H       
  47 H47           -5.6325    -2.4562    -0.7324 H       
  48 H48           -6.9746    -0.3765    -0.8826 H       
  49 H49           -6.6277    -0.2785    -2.6256 H       
  50 H50           -9.8582    -2.0062    -2.4569 H       
  51 H51            3.4500     2.7430     1.5227 H       
  52 H52            2.5266     4.2326     1.2115 H       
  53 H53            2.6235     2.7191     3.8604 H       
  54 H54            3.4792     4.2379     3.5009 H       
  55 H55            1.7001     4.2086     3.5492 H       
  56 H56            5.5178     3.9679    -5.7032 H       
  57 H57            4.1848     5.0573    -5.2509 H       
  58 H58            5.4038     5.5863    -6.4352 H       
  59 H59            9.7345     6.5106    -2.8204 H       
  60 H60            9.2113     7.8779    -3.8328 H       
  61 H61            8.8234     7.8571    -2.0958 H       
  62 H62            7.3541     5.5070    -0.4206 H       
  63 H63            7.4239     7.2688    -0.6644 H       
  64 H64            5.8512     6.4596    -0.4648 H       
@<TRIPOS>BOND
   1    1    2 ar
   2    1    7 1
   3    1    6 ar
   4    2    3 ar
   5    2   34 1
   6    3    4 ar
   7    3   35 1
   8    4    5 ar
   9    4   21 1
  10    5    6 ar
  11    5   36 1
  12    6   37 1
  13    7    8 1
  14    7   10 1
  15    7   38 1
  16    8    9 1
  17    9   11 ar
  18    9   12 ar
  19   10   29 1
  20   10   39 1
  21   10   40 1
  22   11   15 ar
  23   11   41 1
  24   12   13 ar
  25   12   42 1
  26   13   14 ar
  27   13   43 1
  28   14   15 ar
  29   14   16 1
  30   15   44 1
  31   16   17 2
  32   16   20 1
  33   17   18 1
  34   17   33 1
  35   18   19 1
  36   18   32 1
  37   19   20 2
  38   20   31 1
  39   21   22 am
  40   21   23 2
  41   22   24 1
  42   22   45 1
  43   24   25 1
  44   24   46 1
  45   24   47 1
  46   25   26 1
  47   25   48 1
  48   25   49 1
  49   26   27 2
  50   26   28 1
  51   28   50 1
  52   29   30 1
  53   29   51 1
  54   29   52 1
  55   30   53 1
  56   30   54 1
  57   30   55 1
  58   31   56 1
  59   31   57 1
  60   31   58 1
  61   32   59 1
  62   32   60 1
  63   32   61 1
  64   33   62 1
  65   33   63 1
  66   33   64 1

#	End of record

