#	Name: ASD08070163
#	Creating user name:	WinNT
#	Creation time:	15. 06. 2019 21:14

#	Modifying user name:	WinNT
#	Modification time:	15. 06. 2019 21:14

#	Program:	/corina/corina34_cracker 3.40 0067  02.08.2006

@<TRIPOS>MOLECULE
ASD08070163
  35   37    0    0    0
SMALL
NO_CHARGES


@<TRIPOS>ATOM
   1 N1            -0.0158     1.3150     0.0093 N.ar    
   2 C2             0.0021    -0.0041     0.0020 C.ar    
   3 C3             1.1975    -0.7022    -0.0127 C.ar    
   4 C4             2.3912    -0.0010    -0.0203 C.ar    
   5 C5             2.3387     1.3981    -0.0128 C.ar    
   6 C6             1.0927     2.0259     0.0025 C.ar    
   7 N7             3.5191     3.5432    -0.0125 N.am    
   8 C8             3.5827     2.1969    -0.0199 C.2     
   9 C9             5.1546     3.4035    -2.2818 C.ar    
  10 C10            5.2240     4.5060    -1.4397 C.ar    
  11 C11            4.7518     4.3348    -0.0196 C.3     
  12 C12            5.5780     3.4940    -3.5914 C.ar    
  13 C13            6.0778     4.6909    -4.0702 C.ar    
  14 C14            6.1465     5.7872    -3.2358 C.ar    
  15 C15            5.7165     5.6993    -1.9179 C.ar    
  16 C16            5.8052     6.9390    -1.0669 C.3     
  17 C17            5.7142     6.5810     0.4151 C.3     
  18 C18            4.4817     5.6933     0.6239 C.3     
  19 O19            4.6628     1.6396    -0.0324 O.2     
  20 Br20           1.1998    -2.5932    -0.0216 Br      
  21 H21           -0.9309    -0.5481     0.0080 H       
  22 H22            3.3384    -0.5198    -0.0314 H       
  23 H23            1.0369     3.1044     0.0085 H       
  24 H24            2.6571     3.9880    -0.0025 H       
  25 H25            4.7700     2.4665    -1.9068 H       
  26 H26            5.5178     3.8122     0.5534 H       
  27 H27            5.5196     2.6328    -4.2405 H       
  28 H28            6.4135     4.7672    -5.0938 H       
  29 H29            6.5381     6.7214    -3.6102 H       
  30 H30            6.7546     7.4391    -1.2582 H       
  31 H31            4.9870     7.6114    -1.3251 H       
  32 H32            6.6112     6.0408     0.7179 H       
  33 H33            5.6158     7.4909     1.0071 H       
  34 H34            3.6129     6.1554     0.1551 H       
  35 H35            4.2987     5.5644     1.6906 H       
@<TRIPOS>BOND
   1    1    2 ar
   2    1    6 ar
   3    2    3 ar
   4    2   21 1
   5    3    4 ar
   6    3   20 1
   7    4    5 ar
   8    4   22 1
   9    5    6 ar
  10    5    8 1
  11    6   23 1
  12    7    8 am
  13    7   11 1
  14    7   24 1
  15    8   19 2
  16    9   10 ar
  17    9   12 ar
  18    9   25 1
  19   10   11 1
  20   10   15 ar
  21   11   18 1
  22   11   26 1
  23   12   13 ar
  24   12   27 1
  25   13   14 ar
  26   13   28 1
  27   14   15 ar
  28   14   29 1
  29   15   16 1
  30   16   17 1
  31   16   30 1
  32   16   31 1
  33   17   18 1
  34   17   32 1
  35   17   33 1
  36   18   34 1
  37   18   35 1

#	End of record

