#	Name: ASD04881338
#	Creating user name:	WinNT
#	Creation time:	15. 06. 2019 20:53

#	Modifying user name:	WinNT
#	Modification time:	15. 06. 2019 20:53

#	Program:	/corina/corina34_cracker 3.40 0067  02.08.2006

@<TRIPOS>MOLECULE
ASD04881338
  75   80    0    0    0
SMALL
NO_CHARGES


@<TRIPOS>ATOM
   1 C1             0.2064     1.4523    -0.0925 C.ar    
   2 C2            -0.0374     0.0774    -0.0345 C.ar    
   3 C3             1.0241    -0.8201    -0.0546 C.ar    
   4 C4             2.3191    -0.3581    -0.1322 C.ar    
   5 C5             2.5700     1.0156    -0.1905 C.ar    
   6 C6             1.5046     1.9201    -0.1704 C.ar    
   7 N7            -0.8647     2.3556    -0.0775 N.am    
   8 C8            -0.7275     3.5536     0.5245 C.2     
   9 O9             0.2876     3.8106     1.1434 O.2     
  10 C10           -1.8077     4.5524     0.4330 C.2     
  11 C11           -1.8082     5.7959     0.9864 C.2     
  12 O12           -2.9777     6.3690     0.6600 O.3     
  13 C13           -3.6803     5.4975    -0.0773 C.2     
  14 N14           -2.9895     4.4070    -0.2255 N.2     
  15 N15           -1.3453    -0.3942     0.0440 N.3     
  16 C16           -1.9679    -0.0104     1.3186 C.3     
  17 C17           -3.4253    -0.4773     1.3324 C.3     
  18 N18           -3.4721    -1.9340     1.1443 N.3     
  19 C19           -2.8495    -2.3178    -0.1303 C.3     
  20 C20           -1.3921    -1.8509    -0.1441 C.3     
  21 C21           -4.7781    -2.4049     1.2227 C.ar    
  22 C22           -5.0526     5.7454    -0.6488 C.3     
  23 C23           -6.1840     6.0469     0.3360 C.3     
  24 C24           -5.6165     7.1637    -0.5425 C.3     
  25 C25            3.9574     1.5103    -0.2726 C.2     
  26 N26            4.9841     0.6374    -0.2915 N.am    
  27 O27            4.1747     2.7056    -0.3233 O.2     
  28 C28            6.3619     1.1286    -0.3730 C.3     
  29 C29            7.3271    -0.0585    -0.3783 C.3     
  30 C30            8.7660     0.4546    -0.4635 C.3     
  31 N31            9.6902    -0.6821    -0.4686 N.am    
  32 C32           10.1169    -1.3077    -1.5792 C.2     
  33 C33           11.0515    -2.4393    -1.2124 C.3     
  34 C34           10.7984    -2.6664     0.2961 C.3     
  35 C35           10.2742    -1.2800     0.7378 C.3     
  36 O36            9.7985    -1.0088    -2.7106 O.2     
  37 C37           -5.0419    -3.7667     1.0765 C.ar    
  38 C38           -6.3601    -4.1848     1.1635 C.ar    
  39 C39           -7.3359    -3.2239     1.3904 C.ar    
  40 N40           -6.9965    -1.9567     1.5165 N.ar    
  41 N41           -5.7772    -1.5628     1.4421 N.ar    
  42 H42            0.8327    -1.8821    -0.0090 H       
  43 H43            3.1416    -1.0579    -0.1476 H       
  44 H44            1.6953     2.9821    -0.2157 H       
  45 H45           -1.7049     2.1187    -0.5004 H       
  46 H46           -1.0183     6.2375     1.5758 H       
  47 H47           -1.4284    -0.4780     2.1422 H       
  48 H48           -1.9321     1.0735     1.4290 H       
  49 H49           -3.8808    -0.2192     2.2885 H       
  50 H50           -3.9714     0.0113     0.5254 H       
  51 H51           -2.8853    -3.4016    -0.2407 H       
  52 H52           -3.3890    -1.8501    -0.9539 H       
  53 H53           -0.9366    -2.1089    -1.1001 H       
  54 H54           -0.8460    -2.3395     0.6629 H       
  55 H55           -5.3015     5.1700    -1.5405 H       
  56 H56           -7.1774     5.6703     0.0920 H       
  57 H57           -5.9359     6.0660     1.3972 H       
  58 H58           -4.9949     7.9175    -0.0592 H       
  59 H59           -6.2364     7.5217    -1.3644 H       
  60 H60            4.8108    -0.3162    -0.2510 H       
  61 H61            6.4887     1.7042    -1.2899 H       
  62 H62            6.5725     1.7643     0.4870 H       
  63 H63            7.2003    -0.6340     0.5386 H       
  64 H64            7.1165    -0.6941    -1.2384 H       
  65 H65            8.8929     1.0301    -1.3804 H       
  66 H66            8.9766     1.0902     0.3966 H       
  67 H67           10.8051    -3.3368    -1.7798 H       
  68 H68           12.0879    -2.1496    -1.3859 H       
  69 H69           10.0471    -3.4402     0.4534 H       
  70 H70           11.7250    -2.9133     0.8143 H       
  71 H71           11.0942    -0.6632     1.1055 H       
  72 H72            9.5122    -1.3943     1.5088 H       
  73 H73           -4.2440    -4.4729     0.9008 H       
  74 H74           -6.6207    -5.2275     1.0574 H       
  75 H75           -8.3734    -3.5148     1.4634 H       
@<TRIPOS>BOND
   1    1    2 ar
   2    1    6 ar
   3    1    7 1
   4    2    3 ar
   5    2   15 1
   6    3    4 ar
   7    3   42 1
   8    4    5 ar
   9    4   43 1
  10    5    6 ar
  11    5   25 1
  12    6   44 1
  13    7    8 am
  14    7   45 1
  15    8    9 2
  16    8   10 1
  17   10   11 2
  18   10   14 1
  19   11   12 1
  20   11   46 1
  21   12   13 1
  22   13   14 2
  23   13   22 1
  24   15   16 1
  25   15   20 1
  26   16   17 1
  27   16   47 1
  28   16   48 1
  29   17   18 1
  30   17   49 1
  31   17   50 1
  32   18   19 1
  33   18   21 1
  34   19   20 1
  35   19   51 1
  36   19   52 1
  37   20   53 1
  38   20   54 1
  39   21   41 ar
  40   21   37 ar
  41   22   23 1
  42   22   24 1
  43   22   55 1
  44   23   24 1
  45   23   56 1
  46   23   57 1
  47   24   58 1
  48   24   59 1
  49   25   26 am
  50   25   27 2
  51   26   28 1
  52   26   60 1
  53   28   29 1
  54   28   61 1
  55   28   62 1
  56   29   30 1
  57   29   63 1
  58   29   64 1
  59   30   31 1
  60   30   65 1
  61   30   66 1
  62   31   32 am
  63   31   35 1
  64   32   33 1
  65   32   36 2
  66   33   34 1
  67   33   67 1
  68   33   68 1
  69   34   35 1
  70   34   69 1
  71   34   70 1
  72   35   71 1
  73   35   72 1
  74   37   38 ar
  75   37   73 1
  76   38   39 ar
  77   38   74 1
  78   39   40 ar
  79   39   75 1
  80   40   41 ar

#	End of record

