#	Name: ASD02039222
#	Creating user name:	WinNT
#	Creation time:	15. 06. 2019 20:17

#	Modifying user name:	WinNT
#	Modification time:	15. 06. 2019 20:17

#	Program:	/corina/corina34_cracker 3.40 0067  02.08.2006

@<TRIPOS>MOLECULE
ASD02039222
  71   75    0    0    0
SMALL
NO_CHARGES


@<TRIPOS>ATOM
   1 N1            -0.1995     1.8138     0.1230 N.am    
   2 C2            -0.2121     0.4694     0.1097 C.2     
   3 C3             0.9800    -0.2831     0.1792 C.2     
   4 C4             2.1795     0.3438     0.2625 C.2     
   5 C5             2.2040     1.8076     0.2776 C.ar    
   6 C6             3.4106     2.5105     0.3610 C.ar    
   7 C7             3.3993     3.8763     0.3720 C.ar    
   8 C8             2.2008     4.5736     0.3010 C.ar    
   9 C9             1.0003     3.9021     0.2183 C.ar    
  10 C10            0.9869     2.5111     0.2057 C.ar    
  11 O11           -1.2796    -0.1141     0.0362 O.2     
  12 C12           -1.4644     2.5485     0.0424 C.3     
  13 O13           -1.6206     3.0852    -1.2727 O.3     
  14 C14           -2.0864     2.1376    -2.2356 C.3     
  15 C15           -2.2159     2.8184    -3.5997 C.3     
  16 Si16          -2.8232     1.5831    -4.8551 Si      
  17 C17           -4.4855     0.9278    -4.3277 C.3     
  18 C18           -2.9809     2.4120    -6.5160 C.3     
  19 C19           -1.6105     0.1741    -4.9768 C.3     
  20 C20            4.6993     4.6332     0.4623 C.3     
  21 C21            5.0440     5.5847    -0.6851 C.3     
  22 C22            4.6225     6.1465     0.6742 C.3     
  23 O23            7.4934     6.1235    -0.2831 O.3     
  24 N24            8.5387     6.1120    -0.8983 N.2     
  25 C25            8.3354     5.7021    -2.1221 C.2     
  26 N26            7.0161     5.4414    -2.2425 N.2     
  27 C27            6.4951     5.7124    -1.0711 C.2     
  28 N28            9.2973     5.5612    -3.1144 N.pl3   
  29 C29           10.6133     5.9768    -2.8779 C.ar    
  30 C30           11.6684     5.3432    -3.5217 C.ar    
  31 C31           12.9658     5.7540    -3.2883 C.ar    
  32 C32           13.2157     6.7990    -2.4107 C.ar    
  33 C33           12.1628     7.4319    -1.7670 C.ar    
  34 C34           10.8639     7.0263    -2.0041 C.ar    
  35 C35           14.1107     5.0667    -3.9868 C.3     
  36 O36           14.4938     7.2026    -2.1810 O.3     
  37 C37           14.6780     8.2844    -1.2656 C.3     
  38 F38           14.0058     9.4160    -1.7397 F       
  39 F39           14.1656     7.9280    -0.0135 F       
  40 H40            0.9366    -1.3621     0.1664 H       
  41 H41            3.0965    -0.2242     0.3168 H       
  42 H42            4.3471     1.9754     0.4169 H       
  43 H43            2.2094     5.6535     0.3111 H       
  44 H44            0.0733     4.4536     0.1638 H       
  45 H45           -2.2916     1.8726     0.2596 H       
  46 H46           -1.4593     3.3615     0.7684 H       
  47 H47           -1.3769     1.3133    -2.3069 H       
  48 H48           -3.0590     1.7543    -1.9271 H       
  49 H49           -2.9255     3.6428    -3.5285 H       
  50 H50           -1.2433     3.2018    -3.9082 H       
  51 H51           -5.1951     1.7522    -4.2565 H       
  52 H52           -4.8408     0.2051    -5.0622 H       
  53 H53           -4.3933     0.4428    -3.3559 H       
  54 H54           -2.0083     2.7954    -6.8246 H       
  55 H55           -3.3362     1.6892    -7.2505 H       
  56 H56           -3.6904     3.2364    -6.4448 H       
  57 H57           -1.5182    -0.3109    -4.0050 H       
  58 H58           -1.9658    -0.5487    -5.7113 H       
  59 H59           -0.6379     0.5575    -5.2854 H       
  60 H60            5.5221     4.0992     0.9378 H       
  61 H61            4.3305     5.6633    -1.5054 H       
  62 H62            3.6317     6.5947     0.7482 H       
  63 H63            5.3948     6.6084     1.2893 H       
  64 H64            9.0572     5.1748    -3.9712 H       
  65 H65           11.4740     4.5293    -4.2044 H       
  66 H66           12.3582     8.2448    -1.0834 H       
  67 H67           10.0438     7.5221    -1.5062 H       
  68 H68           14.3146     5.5701    -4.9318 H       
  69 H69           14.9981     5.1064    -3.3551 H       
  70 H70           13.8475     4.0265    -4.1786 H       
  71 H71           15.7413     8.5054    -1.1735 H       
@<TRIPOS>BOND
   1    1    2 am
   2    1   10 1
   3    1   12 1
   4    2    3 1
   5    2   11 2
   6    3    4 2
   7    3   40 1
   8    4    5 1
   9    4   41 1
  10    5    6 ar
  11    5   10 ar
  12    6    7 ar
  13    6   42 1
  14    7    8 ar
  15    7   20 1
  16    8    9 ar
  17    8   43 1
  18    9   10 ar
  19    9   44 1
  20   12   13 1
  21   12   45 1
  22   12   46 1
  23   13   14 1
  24   14   15 1
  25   14   47 1
  26   14   48 1
  27   15   16 1
  28   15   49 1
  29   15   50 1
  30   16   17 1
  31   16   18 1
  32   16   19 1
  33   17   51 1
  34   17   52 1
  35   17   53 1
  36   18   54 1
  37   18   55 1
  38   18   56 1
  39   19   57 1
  40   19   58 1
  41   19   59 1
  42   20   21 1
  43   20   22 1
  44   20   60 1
  45   21   22 1
  46   21   27 1
  47   21   61 1
  48   22   62 1
  49   22   63 1
  50   23   24 1
  51   23   27 1
  52   24   25 2
  53   25   26 1
  54   25   28 1
  55   26   27 2
  56   28   29 1
  57   28   64 1
  58   29   30 ar
  59   29   34 ar
  60   30   31 ar
  61   30   65 1
  62   31   32 ar
  63   31   35 1
  64   32   33 ar
  65   32   36 1
  66   33   34 ar
  67   33   66 1
  68   34   67 1
  69   35   68 1
  70   35   69 1
  71   35   70 1
  72   36   37 1
  73   37   38 1
  74   37   39 1
  75   37   71 1

#	End of record

