#	Name: ASD00960301
#	Creating user name:	WinNT
#	Creation time:	15. 06. 2019 18:53

#	Modifying user name:	WinNT
#	Modification time:	15. 06. 2019 18:53

#	Program:	/corina/corina34_cracker 3.40 0067  02.08.2006

@<TRIPOS>MOLECULE
ASD00960301
  38   40    0    0    0
SMALL
NO_CHARGES


@<TRIPOS>ATOM
   1 C1            -0.0169     1.3978     0.0097 C.2     
   2 N2             2.0936     0.7100    -0.0208 N.pl3   
   3 C3             1.2865    -0.3971    -0.0097 C.2     
   4 C4             0.0021    -0.0041     0.0020 C.2     
   5 N5             3.4917     0.6025    -0.0578 N.2     
   6 C6             4.0172    -0.5743    -0.2884 C.2     
   7 N7             3.2276    -1.6842    -0.5662 N.pl3   
   8 C8             1.8710    -1.7917     0.0001 C.3     
   9 N9             1.9395    -2.2994     1.3769 N.3     
  10 C10            1.3003     1.8255    -0.0006 C.2     
  11 C11            5.4823    -0.7261    -0.2531 C.2     
  12 N12            6.2639     0.3390     0.0141 N.am    
  13 S13            6.1920    -2.2552    -0.5516 S.2     
  14 C14            1.7597     3.2149     0.0078 C.2     
  15 O15            0.9506     4.1230     0.0259 O.2     
  16 O16            3.0807     3.4886    -0.0045 O.3     
  17 C17            3.4578     4.8669     0.0047 C.3     
  18 C18            4.9607     4.9767    -0.0113 C.ar    
  19 C19            5.6364     5.0387    -1.2156 C.ar    
  20 C20            7.0150     5.1394    -1.2303 C.ar    
  21 C21            7.7178     5.1785    -0.0406 C.ar    
  22 C22            7.0420     5.1173     1.1638 C.ar    
  23 C23            5.6631     5.0210     1.1785 C.ar    
  24 H24           -0.8949     2.0267     0.0175 H       
  25 H25           -0.8618    -0.6523     0.0055 H       
  26 H26            3.5708    -2.3908    -1.1352 H       
  27 H27            1.2619    -2.4554    -0.6136 H       
  28 H28            2.3698    -3.2116     1.4049 H       
  29 H29            2.4266    -1.6512     1.9775 H       
  30 H30            5.8618     1.2053     0.1832 H       
  31 H31            7.2284     0.2391     0.0373 H       
  32 H32            3.0479     5.3616    -0.8759 H       
  33 H33            3.0681     5.3442     0.9039 H       
  34 H34            5.0873     5.0082    -2.1451 H       
  35 H35            7.5430     5.1872    -2.1712 H       
  36 H36            8.7950     5.2564    -0.0520 H       
  37 H37            7.5912     5.1475     2.0933 H       
  38 H38            5.1349     4.9770     2.1194 H       
@<TRIPOS>BOND
   1    1    4 1
   2    1   10 2
   3    1   24 1
   4    2    3 1
   5    2    5 1
   6    2   10 1
   7    3    4 2
   8    3    8 1
   9    4   25 1
  10    5    6 2
  11    6    7 1
  12    6   11 1
  13    7    8 1
  14    7   26 1
  15    8    9 1
  16    8   27 1
  17    9   28 1
  18    9   29 1
  19   10   14 1
  20   11   12 am
  21   11   13 2
  22   12   30 1
  23   12   31 1
  24   14   15 2
  25   14   16 1
  26   16   17 1
  27   17   18 1
  28   17   32 1
  29   17   33 1
  30   18   19 ar
  31   18   23 ar
  32   19   20 ar
  33   19   34 1
  34   20   21 ar
  35   20   35 1
  36   21   22 ar
  37   21   36 1
  38   22   23 ar
  39   22   37 1
  40   23   38 1

#	End of record

