#	Name: ASD01884744
#	Creating user name:	WinNT
#	Creation time:	15. 06. 2019 19:48

#	Modifying user name:	WinNT
#	Modification time:	15. 06. 2019 19:48

#	Program:	/corina/corina34_cracker 3.40 0067  02.08.2006

@<TRIPOS>MOLECULE
ASD01884744
  50   53    0    0    0
SMALL
NO_CHARGES


@<TRIPOS>ATOM
   1 C1            -0.0170     1.3882     0.0448 C.2     
   2 C2             0.0019    -0.0043     0.0379 C.2     
   3 C3            -1.2135    -0.6983     0.0098 C.2     
   4 C4            -2.3897    -0.0118    -0.0107 C.2     
   5 N5            -2.4099     1.3457    -0.0040 N.am    
   6 C6            -1.2677     2.0576     0.0292 C.2     
   7 O7            -1.3080     3.2764     0.0348 O.2     
   8 C8            -3.6958     2.0473    -0.0272 C.3     
   9 C9             1.2062     2.1323     0.0733 C.1     
  10 N10            2.1765     2.7226     0.0958 N.1     
  11 C11           -4.1736     2.2840     1.4069 C.3     
  12 C12           -5.5165     3.0167     1.3827 C.3     
  13 C13           -6.5772     2.1165     0.7461 C.3     
  14 C14           -5.9339     3.3638     2.8132 C.3     
  15 N15           -1.2200    -2.1015     0.0024 N.pl3   
  16 C16           -2.4822    -2.8514     0.1201 C.3     
  17 C17           -2.2539    -3.9748     1.1070 C.2     
  18 C18           -1.0343    -4.3269     1.5591 C.2     
  19 C19            0.2587    -3.6643     1.1631 C.3     
  20 C20            0.0328    -2.8607    -0.1294 C.3     
  21 O21           -3.1960    -4.7613     1.6603 O.3     
  22 C22           -2.6424    -5.6551     2.4854 C.ar    
  23 C23           -1.2425    -5.4356     2.4716 C.ar    
  24 C24           -3.1897    -6.6639     3.2725 C.ar    
  25 C25           -2.3083    -7.4235     4.0236 C.ar    
  26 C26           -0.9416    -7.2036     4.0054 C.ar    
  27 C27           -0.3742    -6.2153     3.2375 C.ar    
  28 H28            0.9394    -0.5402     0.0536 H       
  29 H29           -3.3220    -0.5565    -0.0330 H       
  30 H30           -3.5780     3.0052    -0.5336 H       
  31 H31           -4.4300     1.4427    -0.5596 H       
  32 H32           -4.2914     1.3260     1.9134 H       
  33 H33           -3.4393     2.8885     1.9394 H       
  34 H34           -5.4201     3.9328     0.8000 H       
  35 H35           -6.6736     1.2004     1.3289 H       
  36 H36           -7.5340     2.6385     0.7289 H       
  37 H37           -6.2798     1.8692    -0.2730 H       
  38 H38           -5.1782     4.0051     3.2667 H       
  39 H39           -6.8907     3.8858     2.7959 H       
  40 H40           -6.0303     2.4477     3.3960 H       
  41 H41           -3.2711    -2.1933     0.4844 H       
  42 H42           -2.7606    -3.2622    -0.8504 H       
  43 H43            0.5845    -2.9950     1.9594 H       
  44 H44            1.0201    -4.4247     0.9894 H       
  45 H45           -0.0404    -3.5416    -0.9774 H       
  46 H46            0.8630    -2.1713    -0.2831 H       
  47 H47           -4.2540    -6.8460     3.2968 H       
  48 H48           -2.7008    -8.2146     4.6454 H       
  49 H49           -0.3023    -7.8276     4.6122 H       
  50 H50            0.6929    -6.0490     3.2280 H       
@<TRIPOS>BOND
   1    1    2 2
   2    1    9 1
   3    1    6 1
   4    2    3 1
   5    2   28 1
   6    3    4 2
   7    3   15 1
   8    4    5 1
   9    4   29 1
  10    5    8 1
  11    5    6 am
  12    6    7 2
  13    8   11 1
  14    8   30 1
  15    8   31 1
  16    9   10 3
  17   11   12 1
  18   11   32 1
  19   11   33 1
  20   12   13 1
  21   12   14 1
  22   12   34 1
  23   13   35 1
  24   13   36 1
  25   13   37 1
  26   14   38 1
  27   14   39 1
  28   14   40 1
  29   15   16 1
  30   15   20 1
  31   16   17 1
  32   16   41 1
  33   16   42 1
  34   17   18 2
  35   17   21 1
  36   18   19 1
  37   18   23 1
  38   19   20 1
  39   19   43 1
  40   19   44 1
  41   20   45 1
  42   20   46 1
  43   21   22 1
  44   22   23 ar
  45   22   24 ar
  46   23   27 ar
  47   24   25 ar
  48   24   47 1
  49   25   26 ar
  50   25   48 1
  51   26   27 ar
  52   26   49 1
  53   27   50 1

#	End of record

