#	Name: ASD01815626
#	Creating user name:	WinNT
#	Creation time:	15. 06. 2019 19:33

#	Modifying user name:	WinNT
#	Modification time:	15. 06. 2019 19:33

#	Program:	/corina/corina34_cracker 3.40 0067  02.08.2006

@<TRIPOS>MOLECULE
ASD01815626
  37   39    0    0    0
SMALL
NO_CHARGES


@<TRIPOS>ATOM
   1 C1             1.1540     2.2503    -0.5133 C.ar    
   2 C2             0.7780     0.9149    -0.4982 C.ar    
   3 C3             1.7210    -0.0806    -0.3463 C.ar    
   4 C4             3.0679     0.2525    -0.2065 C.ar    
   5 C5             3.4441     1.6059    -0.2229 C.ar    
   6 C6             2.4789     2.6011    -0.3768 C.ar    
   7 N7             4.0207    -0.7323    -0.0534 N.pl3   
   8 C8             5.3251    -0.4645     0.0853 C.2     
   9 C9             5.8151     0.8261     0.0847 C.2     
  10 C10            4.8718     1.9447    -0.0740 C.2     
  11 O11            5.2541     3.1016    -0.0815 O.2     
  12 C12            7.2545     1.0789     0.2401 C.2     
  13 O13            8.0246     0.1474     0.3706 O.2     
  14 O14            7.7208     2.3438     0.2380 O.3     
  15 C15            3.5871    -2.1316    -0.0416 C.3     
  16 C16            3.4443    -2.6253    -1.4583 C.ar    
  17 C17            4.5249    -2.5730    -2.3220 C.ar    
  18 C18            4.3921    -3.0269    -3.6236 C.ar    
  19 C19            3.1816    -3.5314    -4.0587 C.ar    
  20 C20            2.1030    -3.5831    -3.1951 C.ar    
  21 C21            2.2359    -3.1356    -1.8941 C.ar    
  22 F22            1.3399    -1.3766    -0.3326 F       
  23 F23            5.7079    -2.0791    -1.8956 F       
  24 C24            5.5674    -2.9702    -4.5652 C.3     
  25 F25            5.1909    -3.4807    -5.8122 F       
  26 F26            5.9843    -1.6428    -4.7113 F       
  27 F27            6.6179    -3.7346    -4.0463 F       
  28 H28            0.4047     3.0182    -0.6372 H       
  29 H29           -0.2639     0.6519    -0.6061 H       
  30 H30            2.7691     3.6413    -0.3897 H       
  31 H31            6.0170    -1.2855     0.2018 H       
  32 H32            8.6750     2.4601     0.3433 H       
  33 H33            4.3275    -2.7370     0.4812 H       
  34 H34            2.6273    -2.2103     0.4691 H       
  35 H35            3.0777    -3.8852    -5.0738 H       
  36 H36            1.1571    -3.9773    -3.5362 H       
  37 H37            1.3928    -3.1765    -1.2204 H       
@<TRIPOS>BOND
   1    1    2 ar
   2    1    6 ar
   3    1   28 1
   4    2    3 ar
   5    2   29 1
   6    3    4 ar
   7    3   22 1
   8    4    5 ar
   9    4    7 1
  10    5    6 ar
  11    5   10 1
  12    6   30 1
  13    7    8 1
  14    7   15 1
  15    8    9 2
  16    8   31 1
  17    9   10 1
  18    9   12 1
  19   10   11 2
  20   12   13 2
  21   12   14 1
  22   14   32 1
  23   15   16 1
  24   15   33 1
  25   15   34 1
  26   16   17 ar
  27   16   21 ar
  28   17   18 ar
  29   17   23 1
  30   18   19 ar
  31   18   24 1
  32   19   20 ar
  33   19   35 1
  34   20   21 ar
  35   20   36 1
  36   21   37 1
  37   24   25 1
  38   24   26 1
  39   24   27 1

#	End of record

