#	Name: ASD08070205
#	Creating user name:	WinNT
#	Creation time:	15. 06. 2019 21:14

#	Modifying user name:	WinNT
#	Modification time:	15. 06. 2019 21:14

#	Program:	/corina/corina34_cracker 3.40 0067  02.08.2006

@<TRIPOS>MOLECULE
ASD08070205
  41   42    0    0    0
SMALL
NO_CHARGES


@<TRIPOS>ATOM
   1 C1            -0.0562     1.4955    -0.2300 C.ar    
   2 C2            -0.0773     0.0408    -0.4930 C.2     
   3 O3            -1.1176    -0.5799    -0.3930 O.2     
   4 N4             1.0569    -0.5971    -0.8438 N.am    
   5 C5             1.0360    -2.0386    -1.1045 C.3     
   6 C6             2.1889    -2.4042    -2.0415 C.3     
   7 C7             2.1670    -3.9097    -2.3137 C.3     
   8 C8             1.1044     2.2336    -0.4663 C.ar    
   9 C9             1.1174     3.5910    -0.2187 C.ar    
  10 C10           -0.0164     4.2202     0.2632 C.ar    
  11 C11           -1.1705     3.4941     0.4996 C.ar    
  12 C12           -2.4011     4.1880     1.0241 C.3     
  13 C13            1.1907    -2.7977     0.2149 C.3     
  14 C14            1.1688    -4.3032    -0.0573 C.3     
  15 C15            2.3217    -4.6688    -0.9943 C.3     
  16 C16           -1.1988     2.1377     0.2503 C.ar    
  17 C17           -2.4566     1.3486     0.5079 C.3     
  18 C18            2.0342    -1.6451    -3.3608 C.3     
  19 H19            1.8871    -0.1018    -0.9237 H       
  20 H20            0.0888    -2.3098    -1.5708 H       
  21 H21            3.1361    -2.1331    -1.5751 H       
  22 H22            1.2199    -4.1809    -2.7800 H       
  23 H23            2.9884    -4.1702    -2.9812 H       
  24 H24            1.9905     1.7435    -0.8418 H       
  25 H25            2.0149     4.1634    -0.4011 H       
  26 H26           -0.0008     5.2827     0.4560 H       
  27 H27           -3.0077     4.5340     0.1872 H       
  28 H28           -2.9810     3.4912     1.6294 H       
  29 H29           -2.1049     5.0406     1.6351 H       
  30 H30            2.1378    -2.5265     0.6812 H       
  31 H31            0.3693    -2.5372     0.8824 H       
  32 H32            1.2790    -4.8440     0.8826 H       
  33 H33            0.2217    -4.5744    -0.5236 H       
  34 H34            2.3062    -5.7413    -1.1882 H       
  35 H35            3.2689    -4.3976    -0.5280 H       
  36 H36           -3.0156     1.2422    -0.4218 H       
  37 H37           -2.1947     0.3617     0.8894 H       
  38 H38           -3.0693     1.8712     1.2425 H       
  39 H39            2.0498    -0.5726    -3.1669 H       
  40 H40            2.8556    -1.9056    -4.0283 H       
  41 H41            1.0871    -1.9163    -3.8271 H       
@<TRIPOS>BOND
   1    1    2 1
   2    1    8 ar
   3    1   16 ar
   4    2    3 2
   5    2    4 am
   6    4    5 1
   7    4   19 1
   8    5    6 1
   9    5   13 1
  10    5   20 1
  11    6    7 1
  12    6   18 1
  13    6   21 1
  14    7   15 1
  15    7   22 1
  16    7   23 1
  17    8    9 ar
  18    8   24 1
  19    9   10 ar
  20    9   25 1
  21   10   11 ar
  22   10   26 1
  23   11   16 ar
  24   11   12 1
  25   12   27 1
  26   12   28 1
  27   12   29 1
  28   13   14 1
  29   13   30 1
  30   13   31 1
  31   14   15 1
  32   14   32 1
  33   14   33 1
  34   15   34 1
  35   15   35 1
  36   16   17 1
  37   17   36 1
  38   17   37 1
  39   17   38 1
  40   18   39 1
  41   18   40 1
  42   18   41 1

#	End of record

