#	Name: ASD02030183
#	Creating user name:	WinNT
#	Creation time:	15. 06. 2019 20:14

#	Modifying user name:	WinNT
#	Modification time:	15. 06. 2019 20:14

#	Program:	/corina/corina34_cracker 3.40 0067  02.08.2006

@<TRIPOS>MOLECULE
ASD02030183
  58   62    0    0    0
SMALL
NO_CHARGES


@<TRIPOS>ATOM
   1 N1            -0.1866     1.7492    -0.2371 N.am    
   2 C2            -0.2373     0.2834    -0.3295 C.3     
   3 C3            -1.0379    -0.2554     0.8625 C.3     
   4 N4            -2.2995     0.4924     0.9574 N.am    
   5 C5            -2.2488     1.9582     1.0499 C.3     
   6 C6            -1.4480     2.4967    -0.1365 C.3     
   7 C7             0.9958     2.3961    -0.2388 C.2     
   8 C8             2.2584     1.6285    -0.1942 C.2     
   9 N9             3.4661     2.1327    -0.0592 N.2     
  10 N10            2.3746     0.2905    -0.2786 N.2     
  11 C11            3.6492     0.0049    -0.1988 C.2     
  12 N12            4.3196     1.1673    -0.0618 N.pl3   
  13 O13            1.0240     3.6108    -0.2771 O.2     
  14 C14           -3.4819    -0.1545     0.9592 C.2     
  15 C15           -3.5160    -1.6357     0.9350 C.ar    
  16 O16           -4.5199     0.4769     0.9806 O.2     
  17 C17           -1.1507     3.9823     0.0765 C.3     
  18 C18           -2.2511     2.3098    -1.4253 C.3     
  19 N19           -2.4203    -2.3240     1.2296 N.ar    
  20 C20           -2.4082    -3.6392     1.2202 C.ar    
  21 C21           -3.5479    -4.3590     0.8995 C.ar    
  22 C22           -4.7147    -3.6796     0.5853 C.ar    
  23 C23           -4.6996    -2.2940     0.6088 C.ar    
  24 C24           -1.1374    -4.3732     1.5625 C.3     
  25 C25           -0.9553    -4.8332     3.0103 C.3     
  26 C26           -1.2518    -5.8580     1.9136 C.3     
  27 C27            5.7094     1.3024     0.0572 C.ar    
  28 C28            6.2768     2.5623     0.1932 C.ar    
  29 C29            7.6469     2.6922     0.3102 C.ar    
  30 C30            8.4534     1.5691     0.2915 C.ar    
  31 C31            7.8913     0.3129     0.1561 C.ar    
  32 C32            6.5214     0.1761     0.0449 C.ar    
  33 H33           -0.7254    -0.0078    -1.2596 H       
  34 H34            0.7749    -0.1201    -0.3028 H       
  35 H35           -1.2504    -1.3139     0.7120 H       
  36 H36           -0.4636    -0.1218     1.7793 H       
  37 H37           -3.2610     2.3617     1.0231 H       
  38 H38           -1.7607     2.2494     1.9800 H       
  39 H39            4.0851    -0.9826    -0.2332 H       
  40 H40           -0.4025     4.0942     0.8612 H       
  41 H41           -0.7724     4.4137    -0.8503 H       
  42 H42           -2.0653     4.4974     0.3703 H       
  43 H43           -3.1932     2.8524    -1.3483 H       
  44 H44           -1.6783     2.6942    -2.2693 H       
  45 H45           -2.4538     1.2495    -1.5766 H       
  46 H46           -3.5273    -5.4388     0.8940 H       
  47 H47           -5.6160    -4.2179     0.3316 H       
  48 H48           -5.5906    -1.7325     0.3695 H       
  49 H49           -0.2479    -4.0508     1.0212 H       
  50 H50            0.0541    -4.8138     3.4214 H       
  51 H51           -1.7547    -4.6049     3.7152 H       
  52 H52           -2.2463    -6.3039     1.8970 H       
  53 H53           -0.4376    -6.5128     1.6031 H       
  54 H54            5.6475     3.4400     0.2072 H       
  55 H55            8.0888     3.6719     0.4161 H       
  56 H56            9.5245     1.6732     0.3824 H       
  57 H57            8.5237    -0.5624     0.1419 H       
  58 H58            6.0829    -0.8052    -0.0604 H       
@<TRIPOS>BOND
   1    1    2 1
   2    1    7 am
   3    1    6 1
   4    2    3 1
   5    2   33 1
   6    2   34 1
   7    3    4 1
   8    3   35 1
   9    3   36 1
  10    4    5 1
  11    4   14 am
  12    5    6 1
  13    5   37 1
  14    5   38 1
  15    6   17 1
  16    6   18 1
  17    7    8 1
  18    7   13 2
  19    8    9 2
  20    8   10 1
  21    9   12 1
  22   10   11 2
  23   11   12 1
  24   11   39 1
  25   12   27 1
  26   14   15 1
  27   14   16 2
  28   15   19 ar
  29   15   23 ar
  30   17   40 1
  31   17   41 1
  32   17   42 1
  33   18   43 1
  34   18   44 1
  35   18   45 1
  36   19   20 ar
  37   20   21 ar
  38   20   24 1
  39   21   22 ar
  40   21   46 1
  41   22   23 ar
  42   22   47 1
  43   23   48 1
  44   24   25 1
  45   24   26 1
  46   24   49 1
  47   25   26 1
  48   25   50 1
  49   25   51 1
  50   26   52 1
  51   26   53 1
  52   27   28 ar
  53   27   32 ar
  54   28   29 ar
  55   28   54 1
  56   29   30 ar
  57   29   55 1
  58   30   31 ar
  59   30   56 1
  60   31   32 ar
  61   31   57 1
  62   32   58 1

#	End of record

