#	Name: ASD05380058
#	Creating user name:	WinNT
#	Creation time:	15. 06. 2019 20:59

#	Modifying user name:	WinNT
#	Modification time:	15. 06. 2019 20:59

#	Program:	/corina/corina34_cracker 3.40 0067  02.08.2006

@<TRIPOS>MOLECULE
ASD05380058
  51   55    0    0    0
SMALL
NO_CHARGES


@<TRIPOS>ATOM
   1 C1            -0.1422     1.0825     0.3773 C.ar    
   2 C2            -0.0389    -0.2478    -0.0876 C.ar    
   3 C3             1.0081     1.8048     0.6872 C.ar    
   4 C4             2.2430     1.2123     0.5366 C.ar    
   5 C5             2.3482    -0.0945     0.0795 C.ar    
   6 C6             1.2237    -0.8260    -0.2313 C.ar    
   7 N7            -1.1724    -0.9317    -0.3831 N.2     
   8 C8            -2.3465    -0.3938    -0.2490 C.2     
   9 N9            -2.5399     0.8791     0.1909 N.am    
  10 C10           -1.4861     1.6602     0.5240 C.2     
  11 C11           -3.8415     1.3832     0.3065 C.ar    
  12 C12           -4.6871     0.9053     1.2993 C.ar    
  13 C13           -4.2870     2.3655    -0.5674 C.ar    
  14 C14           -5.5724     2.8610    -0.4506 C.ar    
  15 C15           -6.4137     2.3787     0.5365 C.ar    
  16 C16           -5.9701     1.4039     1.4113 C.ar    
  17 C17           -3.5565    -1.2213    -0.5988 C.3     
  18 N18           -4.0976    -0.7756    -1.8852 N.pl3   
  19 C19           -5.4330    -0.9818    -2.1827 C.ar    
  20 N20           -6.2371    -1.5823    -1.3125 N.ar    
  21 O21           -1.6443     2.8006     0.9193 O.2     
  22 C22           -5.9692    -0.5551    -3.4099 C.ar    
  23 C23           -7.3315    -0.7899    -3.6591 C.ar    
  24 N24           -8.0629    -1.4029    -2.7338 N.ar    
  25 C25           -7.5191    -1.7838    -1.5892 C.ar    
  26 N26           -5.4665     0.0754    -4.4998 N.2     
  27 C27           -6.4107     0.2382    -5.3798 C.2     
  28 N28           -7.5815    -0.2794    -4.9077 N.pl3   
  29 C29           -3.1557    -2.6946    -0.6970 C.3     
  30 C30            0.9025     3.2240     1.1829 C.3     
  31 Cl31          -6.1311     4.0894    -1.5426 Cl      
  32 N32           -8.3153    -2.4151    -0.6478 N.pl3   
  33 H33            3.1368     1.7694     0.7759 H       
  34 H34            3.3242    -0.5432    -0.0329 H       
  35 H35            1.3180    -1.8417    -0.5860 H       
  36 H36           -4.3417     0.1441     1.9831 H       
  37 H37           -3.6301     2.7425    -1.3374 H       
  38 H38           -7.4173     2.7674     0.6267 H       
  39 H39           -6.6290     1.0294     2.1807 H       
  40 H40           -4.3145    -1.1018     0.1753 H       
  41 H41           -3.5196    -0.3360    -2.5283 H       
  42 H42           -6.2862     0.7131    -6.3418 H       
  43 H43           -8.4341    -0.2858    -5.3703 H       
  44 H44           -2.8146    -3.0441     0.2775 H       
  45 H45           -4.0156    -3.2847    -1.0139 H       
  46 H46           -2.3515    -2.8047    -1.4244 H       
  47 H47            0.7207     3.2209     2.2576 H       
  48 H48            1.8327     3.7522     0.9733 H       
  49 H49            0.0779     3.7255     0.6764 H       
  50 H50           -7.9335    -2.7016     0.1966 H       
  51 H51           -9.2546    -2.5707    -0.8330 H       
@<TRIPOS>BOND
   1    1    2 ar
   2    1    3 ar
   3    1   10 1
   4    2    7 1
   5    2    6 ar
   6    3    4 ar
   7    3   30 1
   8    4    5 ar
   9    4   33 1
  10    5    6 ar
  11    5   34 1
  12    6   35 1
  13    7    8 2
  14    8    9 1
  15    8   17 1
  16    9   10 am
  17    9   11 1
  18   10   21 2
  19   11   12 ar
  20   11   13 ar
  21   12   16 ar
  22   12   36 1
  23   13   14 ar
  24   13   37 1
  25   14   15 ar
  26   14   31 1
  27   15   16 ar
  28   15   38 1
  29   16   39 1
  30   17   18 1
  31   17   29 1
  32   17   40 1
  33   18   19 1
  34   18   41 1
  35   19   20 ar
  36   19   22 ar
  37   20   25 ar
  38   22   23 ar
  39   22   26 1
  40   23   24 ar
  41   23   28 1
  42   24   25 ar
  43   25   32 1
  44   26   27 2
  45   27   28 1
  46   27   42 1
  47   28   43 1
  48   29   44 1
  49   29   45 1
  50   29   46 1
  51   30   47 1
  52   30   48 1
  53   30   49 1
  54   32   50 1
  55   32   51 1

#	End of record

