#	Name: ASD01885601
#	Creating user name:	WinNT
#	Creation time:	15. 06. 2019 19:49

#	Modifying user name:	WinNT
#	Modification time:	15. 06. 2019 19:49

#	Program:	/corina/corina34_cracker 3.40 0067  02.08.2006

@<TRIPOS>MOLECULE
ASD01885601
  52   55    0    0    0
SMALL
NO_CHARGES


@<TRIPOS>ATOM
   1 C1            -0.0164     1.3565     0.0095 C.ar    
   2 C2             0.0021    -0.0041     0.0020 C.ar    
   3 C3             1.2052    -0.7063    -0.0132 C.ar    
   4 C4             2.3987    -0.0482    -0.0206 C.ar    
   5 C5             2.4183     1.3522    -0.0133 C.ar    
   6 C6             1.1964     2.0715     0.0018 C.ar    
   7 C7             3.6407     2.0712    -0.0210 C.ar    
   8 C8             3.5786     3.4583    -0.0135 C.ar    
   9 C9             2.3314     4.0923     0.0013 C.ar    
  10 N10            1.2049     3.4049     0.0084 N.ar    
  11 C11            4.9416     1.3652    -0.0362 C.ar    
  12 C12            2.2739     5.5740     0.0097 C.2     
  13 C13           -1.2996    -0.7634     0.0109 C.3     
  14 C14            5.9181     1.7182    -0.9686 C.ar    
  15 C15            7.1285     1.0590    -0.9795 C.ar    
  16 C16            7.3769     0.0444    -0.0640 C.ar    
  17 C17            6.4071    -0.3099     0.8652 C.ar    
  18 C18            5.1966     0.3489     0.8856 C.ar    
  19 O19            8.5708    -0.6031    -0.0776 O.3     
  20 C20           -1.7545    -1.0126    -1.4285 C.3     
  21 C21           -3.0562    -1.7719    -1.4197 C.ar    
  22 C22           -4.2689    -1.1011    -1.4041 C.ar    
  23 N23           -5.3918    -1.8014    -1.3966 N.ar    
  24 C24           -5.3658    -3.1191    -1.4039 C.ar    
  25 N25           -4.2317    -3.7904    -1.4188 N.ar    
  26 C26           -3.0695    -3.1577    -1.4328 C.ar    
  27 O27            3.3018     6.2219     0.0038 O.2     
  28 N28            1.0815     6.2021     0.0240 N.am    
  29 C29           -6.6675    -3.8784    -1.3945 C.3     
  30 C30            8.7596    -1.6361     0.8916 C.3     
  31 H31           -0.9577     1.8858     0.0168 H       
  32 H32            1.1920    -1.7862    -0.0189 H       
  33 H33            3.3248    -0.6039    -0.0317 H       
  34 H34            4.4864     4.0435    -0.0187 H       
  35 H35           -1.1600    -1.7179     0.5182 H       
  36 H36           -2.0567    -0.1804     0.5354 H       
  37 H37            5.7255     2.5067    -1.6810 H       
  38 H38            7.8845     1.3314    -1.7010 H       
  39 H39            6.6035    -1.0995     1.5754 H       
  40 H40            4.4449     0.0761     1.6115 H       
  41 H41           -1.8941    -0.0580    -1.9359 H       
  42 H42           -0.9974    -1.5955    -1.9531 H       
  43 H43           -4.2972    -0.0215    -1.3977 H       
  44 H44           -2.1438    -3.7138    -1.4496 H       
  45 H45            0.2610     5.6849     0.0287 H       
  46 H46            1.0439     7.1713     0.0295 H       
  47 H47           -6.9920    -4.0560    -2.4198 H       
  48 H48           -6.5277    -4.8329    -0.8872 H       
  49 H49           -7.4244    -3.2954    -0.8697 H       
  50 H50            8.6655    -1.2163     1.8931 H       
  51 H51            8.0052    -2.4098     0.7496 H       
  52 H52            9.7523    -2.0700     0.7713 H       
@<TRIPOS>BOND
   1    1    2 ar
   2    1    6 ar
   3    1   31 1
   4    2    3 ar
   5    2   13 1
   6    3    4 ar
   7    3   32 1
   8    4    5 ar
   9    4   33 1
  10    5    7 ar
  11    5    6 ar
  12    6   10 ar
  13    7    8 ar
  14    7   11 1
  15    8    9 ar
  16    8   34 1
  17    9   10 ar
  18    9   12 1
  19   11   14 ar
  20   11   18 ar
  21   12   27 2
  22   12   28 am
  23   13   20 1
  24   13   35 1
  25   13   36 1
  26   14   15 ar
  27   14   37 1
  28   15   16 ar
  29   15   38 1
  30   16   17 ar
  31   16   19 1
  32   17   18 ar
  33   17   39 1
  34   18   40 1
  35   19   30 1
  36   20   21 1
  37   20   41 1
  38   20   42 1
  39   21   22 ar
  40   21   26 ar
  41   22   23 ar
  42   22   43 1
  43   23   24 ar
  44   24   25 ar
  45   24   29 1
  46   25   26 ar
  47   26   44 1
  48   28   45 1
  49   28   46 1
  50   29   47 1
  51   29   48 1
  52   29   49 1
  53   30   50 1
  54   30   51 1
  55   30   52 1

#	End of record

