#	Name: ASD01883272
#	Creating user name:	WinNT
#	Creation time:	15. 06. 2019 19:46

#	Modifying user name:	WinNT
#	Modification time:	15. 06. 2019 19:46

#	Program:	/corina/corina34_cracker 3.40 0067  02.08.2006

@<TRIPOS>MOLECULE
ASD01883272
  51   53    0    0    0
SMALL
NO_CHARGES


@<TRIPOS>ATOM
   1 N1            -0.0161     1.3416     0.0083 N.am    
   2 C2             0.0021    -0.0035     0.0501 C.2     
   3 C3            -1.2159    -0.7268     0.0598 C.2     
   4 C4            -2.4262    -0.0109     0.0252 C.2     
   5 C5            -2.3785     1.3967    -0.0178 C.2     
   6 C6            -1.1852     2.0322    -0.0194 C.2     
   7 O7             1.0657    -0.5989     0.0790 O.2     
   8 C8            -1.2150    -2.1581     0.1035 C.1     
   9 N9            -1.2143    -3.2936     0.1382 N.1     
  10 C10            1.2514     2.0761    -0.0013 C.3     
  11 C11            1.7075     2.2873    -1.4463 C.3     
  12 C12            3.0312     3.0545    -1.4564 C.3     
  13 C13            4.1216     2.1986    -0.8087 C.3     
  14 C14            3.4243     3.3746    -2.9000 C.3     
  15 C15           -3.7215    -0.7207     0.0333 C.ar    
  16 C16           -4.5925    -0.5757     1.1163 C.ar    
  17 C17           -5.8000    -1.2386     1.1205 C.ar    
  18 C18           -6.1525    -2.0523     0.0470 C.ar    
  19 C19           -5.2867    -2.1983    -1.0327 C.ar    
  20 C20           -4.0809    -1.5341    -1.0450 C.ar    
  21 N21           -7.3735    -2.7217     0.0541 N.3     
  22 C22           -7.4020    -3.7547     1.0997 C.3     
  23 C23           -8.7792    -4.4233     1.1116 C.3     
  24 O24           -9.0551    -4.9583    -0.1858 O.3     
  25 C25           -9.0361    -3.9793    -1.2282 C.3     
  26 C26           -7.6614    -3.3063    -1.2638 C.3     
  27 Br27          -6.9796    -1.0440     2.5857 Br      
  28 H28           -3.2948     1.9678    -0.0452 H       
  29 H29           -1.1609     3.1114    -0.0522 H       
  30 H30            1.1142     3.0437     0.4815 H       
  31 H31            2.0066     1.5046     0.5383 H       
  32 H32            1.8446     1.3198    -1.9292 H       
  33 H33            0.9523     2.8588    -1.9859 H       
  34 H34            2.9175     3.9827    -0.8964 H       
  35 H35            4.2354     1.2703    -1.3687 H       
  36 H36            5.0647     2.7451    -0.8159 H       
  37 H37            3.8416     1.9706     0.2197 H       
  38 H38            2.6475     3.9843    -3.3613 H       
  39 H39            4.3673     3.9211    -2.9071 H       
  40 H40            3.5380     2.4463    -3.4599 H       
  41 H41           -4.3192     0.0551     1.9493 H       
  42 H42           -5.5627    -2.8304    -1.8637 H       
  43 H43           -3.4097    -1.6480    -1.8833 H       
  44 H44           -6.6362    -4.5025     0.8935 H       
  45 H45           -7.2117    -3.2959     2.0699 H       
  46 H46           -8.7866    -5.2284     1.8464 H       
  47 H47           -9.5393    -3.6863     1.3705 H       
  48 H48           -9.2293    -4.4633    -2.1855 H       
  49 H49           -9.8037    -3.2294    -1.0372 H       
  50 H50           -7.6606    -2.5201    -2.0187 H       
  51 H51           -6.8998    -4.0468    -1.5077 H       
@<TRIPOS>BOND
   1    1    2 am
   2    1   10 1
   3    1    6 1
   4    2    3 1
   5    2    7 2
   6    3    4 2
   7    3    8 1
   8    4    5 1
   9    4   15 1
  10    5    6 2
  11    5   28 1
  12    6   29 1
  13    8    9 3
  14   10   11 1
  15   10   30 1
  16   10   31 1
  17   11   12 1
  18   11   32 1
  19   11   33 1
  20   12   13 1
  21   12   14 1
  22   12   34 1
  23   13   35 1
  24   13   36 1
  25   13   37 1
  26   14   38 1
  27   14   39 1
  28   14   40 1
  29   15   16 ar
  30   15   20 ar
  31   16   17 ar
  32   16   41 1
  33   17   18 ar
  34   17   27 1
  35   18   19 ar
  36   18   21 1
  37   19   20 ar
  38   19   42 1
  39   20   43 1
  40   21   22 1
  41   21   26 1
  42   22   23 1
  43   22   44 1
  44   22   45 1
  45   23   24 1
  46   23   46 1
  47   23   47 1
  48   24   25 1
  49   25   26 1
  50   25   48 1
  51   25   49 1
  52   26   50 1
  53   26   51 1

#	End of record

