#	Name: ASD03740187
#	Creating user name:	WinNT
#	Creation time:	15. 06. 2019 20:46

#	Modifying user name:	WinNT
#	Modification time:	15. 06. 2019 20:46

#	Program:	/corina/corina34_cracker 3.40 0067  02.08.2006

@<TRIPOS>MOLECULE
ASD03740187
  65   69    0    0    0
SMALL
NO_CHARGES


@<TRIPOS>ATOM
   1 C1            -0.4195     2.1457     0.1945 C.ar    
   2 C2            -0.5137     0.7598     0.2071 C.ar    
   3 C3             0.6093    -0.0180     0.1870 C.ar    
   4 C4             1.8664     0.5804     0.1530 C.ar    
   5 C5             1.9634     1.9852     0.1397 C.ar    
   6 C6             0.7996     2.7596     0.1613 C.ar    
   7 N7             3.1478     0.0948     0.1269 N.pl3   
   8 N8             4.0448     1.1674     0.0976 N.2     
   9 C9             3.3919     2.2976     0.1040 C.2     
  10 O10            3.9406     3.5410     0.0811 O.3     
  11 C11            3.5188    -1.3224     0.1301 C.3     
  12 C12            3.6126    -1.8203    -1.2892 C.ar    
  13 C13            4.8136    -1.7454    -1.9697 C.ar    
  14 C14            4.9003    -2.2019    -3.2714 C.ar    
  15 C15            3.7847    -2.7338    -3.8934 C.ar    
  16 C16            2.5831    -2.8085    -3.2118 C.ar    
  17 C17            2.4991    -2.3569    -1.9082 C.ar    
  18 C18            5.3671     3.6201     0.0473 C.3     
  19 C19            5.7960     5.0885     0.0253 C.3     
  20 Cl20           3.8926    -3.3068    -5.5285 Cl      
  21 C21            7.3233     5.1732    -0.0109 C.3     
  22 N22            7.7352     6.5831    -0.0320 N.3     
  23 C23            9.1886     6.7172     0.2431 C.3     
  24 C24            7.5213     7.1778    -1.3692 C.3     
  25 C25            8.6527     8.1976    -1.5962 C.3     
  26 C26            9.5293     8.1177    -0.3253 C.3     
  27 C27            9.4606     6.6644     1.7478 C.3     
  28 N28           10.9065     6.6720     1.9833 N.pl3   
  29 C29           11.4012     6.7318     3.2881 C.ar    
  30 C30           12.7720     6.7391     3.5132 C.ar    
  31 C31           13.2578     6.7988     4.8046 C.ar    
  32 C32           12.3814     6.8514     5.8729 C.ar    
  33 C33           11.0162     6.8444     5.6524 C.ar    
  34 C34           10.5237     6.7901     4.3633 C.ar    
  35 H35           -1.3191     2.7432     0.2066 H       
  36 H36           -1.4866     0.2915     0.2334 H       
  37 H37            0.5224    -1.0945     0.1978 H       
  38 H38            0.8645     3.8376     0.1510 H       
  39 H39            4.4836    -1.4443     0.6224 H       
  40 H40            2.7622    -1.8949     0.6667 H       
  41 H41            5.6842    -1.3299    -1.4843 H       
  42 H42            5.8385    -2.1431    -3.8031 H       
  43 H43            1.7119    -3.2236    -3.6968 H       
  44 H44            1.5611    -2.4151    -1.3760 H       
  45 H45            5.7789     3.1344     0.9319 H       
  46 H46            5.7376     3.1199    -0.8475 H       
  47 H47            5.3842     5.5742    -0.8594 H       
  48 H48            5.4255     5.5887     0.9201 H       
  49 H49            7.7352     4.6876     0.8737 H       
  50 H50            7.6938     4.6730    -0.9057 H       
  51 H51            9.7515     5.9413    -0.2758 H       
  52 H52            7.5633     6.4006    -2.1323 H       
  53 H53            6.5553     7.6817    -1.4013 H       
  54 H54            9.2361     7.9258    -2.4759 H       
  55 H55            8.2409     9.2005    -1.7094 H       
  56 H56            9.2537     8.8990     0.3830 H       
  57 H57           10.5867     8.1833    -0.5814 H       
  58 H58            9.0095     7.5321     2.2292 H       
  59 H59            9.0295     5.7534     2.1631 H       
  60 H60           11.5203     6.6354     1.2331 H       
  61 H61           13.4570     6.6977     2.6792 H       
  62 H62           14.3234     6.8042     4.9803 H       
  63 H63           12.7639     6.8977     6.8818 H       
  64 H64           10.3345     6.8855     6.4891 H       
  65 H65            9.4574     6.7849     4.1918 H       
@<TRIPOS>BOND
   1    1    2 ar
   2    1    6 ar
   3    1   35 1
   4    2    3 ar
   5    2   36 1
   6    3    4 ar
   7    3   37 1
   8    4    5 ar
   9    4    7 1
  10    5    6 ar
  11    5    9 1
  12    6   38 1
  13    7    8 1
  14    7   11 1
  15    8    9 2
  16    9   10 1
  17   10   18 1
  18   11   12 1
  19   11   39 1
  20   11   40 1
  21   12   13 ar
  22   12   17 ar
  23   13   14 ar
  24   13   41 1
  25   14   15 ar
  26   14   42 1
  27   15   16 ar
  28   15   20 1
  29   16   17 ar
  30   16   43 1
  31   17   44 1
  32   18   19 1
  33   18   45 1
  34   18   46 1
  35   19   21 1
  36   19   47 1
  37   19   48 1
  38   21   22 1
  39   21   49 1
  40   21   50 1
  41   22   24 1
  42   22   23 1
  43   23   27 1
  44   23   26 1
  45   23   51 1
  46   24   25 1
  47   24   52 1
  48   24   53 1
  49   25   26 1
  50   25   54 1
  51   25   55 1
  52   26   56 1
  53   26   57 1
  54   27   28 1
  55   27   58 1
  56   27   59 1
  57   28   29 1
  58   28   60 1
  59   29   30 ar
  60   29   34 ar
  61   30   31 ar
  62   30   61 1
  63   31   32 ar
  64   31   62 1
  65   32   33 ar
  66   32   63 1
  67   33   34 ar
  68   33   64 1
  69   34   65 1

#	End of record

