#	Name: ASD01884123
#	Creating user name:	WinNT
#	Creation time:	15. 06. 2019 19:47

#	Modifying user name:	WinNT
#	Modification time:	15. 06. 2019 19:47

#	Program:	/corina/corina34_cracker 3.40 0067  02.08.2006

@<TRIPOS>MOLECULE
ASD01884123
  52   56    0    0    0
SMALL
NO_CHARGES


@<TRIPOS>ATOM
   1 C1            -0.5915     0.3669     1.0853 C.2     
   2 C2             0.1891     0.2998    -0.0374 C.2     
   3 C3            -0.1853     1.0229    -1.1904 C.2     
   4 C4            -1.3035     1.7748    -1.1876 C.2     
   5 N5            -2.0885     1.8490    -0.0739 N.pl3   
   6 C6            -1.7565     1.1536     1.0633 C.2     
   7 N7            -2.6922     1.4197     1.9621 N.2     
   8 C8            -3.2453     2.5097     0.2187 C.2     
   9 N9            -3.5610     2.2211     1.4539 N.2     
  10 C10           -4.0167     3.4104    -0.7112 C.3     
  11 Cl11          -0.1523    -0.5137     2.5154 Cl      
  12 N12            1.3455    -0.4766    -0.0416 N.pl3   
  13 C13            1.2688    -1.9347     0.1219 C.3     
  14 C14            2.0111    -2.6010    -1.0408 C.3     
  15 C15            3.4374    -2.0507    -1.1124 C.3     
  16 C16            3.3918    -0.5427    -1.3692 C.3     
  17 C17            2.6647     0.1463    -0.2159 C.3     
  18 C18            4.1442    -2.3168     0.1917 C.ar    
  19 C19            5.2952    -3.0822     0.2104 C.ar    
  20 C20            5.9435    -3.3263     1.4066 C.ar    
  21 C21            5.4412    -2.8046     2.5840 C.ar    
  22 C22            4.2908    -2.0384     2.5652 C.ar    
  23 C23            3.6448    -1.7907     1.3684 C.ar    
  24 C24           -5.0418     2.5827    -1.4890 C.3     
  25 C25           -6.0090     3.3353    -2.4050 C.3     
  26 C26           -4.8774     2.5006    -3.0079 C.3     
  27 C27            4.1928    -2.7391    -2.2510 C.3     
  28 F28            3.5365    -2.4930    -3.4618 F       
  29 F29            5.4966    -2.2362    -2.3167 F       
  30 F30            4.2359    -4.1175    -2.0157 F       
  31 H31            0.4272     0.9736    -2.0785 H       
  32 H32           -1.5810     2.3241    -2.0751 H       
  33 H33           -4.5325     4.1755    -0.1309 H       
  34 H34           -3.3287     3.8864    -1.4098 H       
  35 H35            1.7341    -2.2216     1.0648 H       
  36 H36            0.2250    -2.2486     0.1167 H       
  37 H37            2.0446    -3.6787    -0.8812 H       
  38 H38            1.4913    -2.3870    -1.9747 H       
  39 H39            4.4080    -0.1554    -1.4434 H       
  40 H40            2.8590    -0.3481    -2.3000 H       
  41 H41            2.5430     1.2057    -0.4415 H       
  42 H42            3.2418     0.0299     0.7015 H       
  43 H43            5.6876    -3.4898    -0.7096 H       
  44 H44            6.8423    -3.9249     1.4213 H       
  45 H45            5.9473    -2.9959     3.5187 H       
  46 H46            3.8981    -1.6311     3.4852 H       
  47 H47            2.7460    -1.1921     1.3537 H       
  48 H48           -5.4201     1.6991    -0.9749 H       
  49 H49           -7.0234     2.9467    -2.4938 H       
  50 H50           -5.9150     4.4202    -2.4534 H       
  51 H51           -4.0389     3.0363    -3.4530 H       
  52 H52           -5.1474     1.5628    -3.4934 H       
@<TRIPOS>BOND
   1    1    2 2
   2    1   11 1
   3    1    6 1
   4    2    3 1
   5    2   12 1
   6    3    4 2
   7    3   31 1
   8    4    5 1
   9    4   32 1
  10    5    6 1
  11    5    8 1
  12    6    7 2
  13    7    9 1
  14    8    9 2
  15    8   10 1
  16   10   24 1
  17   10   33 1
  18   10   34 1
  19   12   13 1
  20   12   17 1
  21   13   14 1
  22   13   35 1
  23   13   36 1
  24   14   15 1
  25   14   37 1
  26   14   38 1
  27   15   16 1
  28   15   18 1
  29   15   27 1
  30   16   17 1
  31   16   39 1
  32   16   40 1
  33   17   41 1
  34   17   42 1
  35   18   19 ar
  36   18   23 ar
  37   19   20 ar
  38   19   43 1
  39   20   21 ar
  40   20   44 1
  41   21   22 ar
  42   21   45 1
  43   22   23 ar
  44   22   46 1
  45   23   47 1
  46   24   25 1
  47   24   26 1
  48   24   48 1
  49   25   26 1
  50   25   49 1
  51   25   50 1
  52   26   51 1
  53   26   52 1
  54   27   28 1
  55   27   29 1
  56   27   30 1

#	End of record

