#	Name: ASD02500268
#	Creating user name:	WinNT
#	Creation time:	15. 06. 2019 20:22

#	Modifying user name:	WinNT
#	Modification time:	15. 06. 2019 20:22

#	Program:	/corina/corina34_cracker 3.40 0067  02.08.2006

@<TRIPOS>MOLECULE
ASD02500268
  66   70    0    0    0
SMALL
NO_CHARGES


@<TRIPOS>ATOM
   1 N1            -3.0296     5.5494    -0.6517 N.ar    
   2 C2            -4.1268     6.1709    -1.0099 C.ar    
   3 C3            -5.3126     6.0388    -0.2903 C.ar    
   4 C4            -5.3512     5.2446     0.8201 C.ar    
   5 C5            -4.1711     4.5784     1.2016 C.ar    
   6 C6            -4.1340     3.7458     2.3313 C.ar    
   7 C7            -2.9728     3.1192     2.6676 C.ar    
   8 C8            -1.8197     3.2935     1.9053 C.ar    
   9 C9            -1.8201     4.0934     0.8041 C.ar    
  10 C10           -2.9995     4.7573     0.4247 C.ar    
  11 S11           -0.3474     4.2966    -0.1417 S.o2    
  12 O12           -0.1183     5.6962    -0.2317 O.2     
  13 O13            0.6028     3.3864     0.3947 O.2     
  14 N14           -0.6766     3.7769    -1.6792 N.am    
  15 C15           -0.9377     2.4296    -1.9181 C.ar    
  16 C16           -0.5016     1.8346    -3.1038 C.ar    
  17 C17           -0.7599     0.5000    -3.3411 C.ar    
  18 C18           -1.4584    -0.2537    -2.3925 C.ar    
  19 C19           -1.8922     0.3471    -1.2081 C.ar    
  20 C20           -1.6270     1.6783    -0.9733 C.ar    
  21 C21           -1.7372    -1.6806    -2.6423 C.2     
  22 O22           -2.1311    -2.0410    -3.7347 O.2     
  23 N23           -1.5552    -2.5849    -1.6595 N.am    
  24 C24           -1.6909    -4.0227    -1.9316 C.3     
  25 C25           -0.3991    -4.7274    -1.4992 C.3     
  26 N26           -0.0610    -4.2932    -0.1364 N.am    
  27 C27            0.0747    -2.8554     0.1356 C.3     
  28 C28           -1.2115    -2.1510    -0.2981 C.3     
  29 C29            0.6646    -4.7686     2.1563 C.ar    
  30 C30            0.6952    -5.6684     3.2193 C.ar    
  31 C31            1.2118    -5.2545     4.4369 C.ar    
  32 C32            1.6801    -3.9546     4.5489 C.ar    
  33 C33            1.6187    -3.1134     3.4496 C.ar    
  34 N34            1.1233    -3.5322     2.3055 N.ar    
  35 C35            0.1210    -5.1975     0.8463 C.2     
  36 O36           -0.1607    -6.3644     0.6579 O.2     
  37 C37            2.1265    -1.6994     3.5664 C.3     
  38 O38            0.1771     2.5704    -4.0246 O.3     
  39 C39            0.5930     1.8970    -5.2144 C.3     
  40 H40           -4.1112     6.8023    -1.8860 H       
  41 H41           -6.2003     6.5642    -0.6101 H       
  42 H42           -6.2616     5.1310     1.3899 H       
  43 H43           -5.0213     3.6034     2.9304 H       
  44 H44           -2.9452     2.4789     3.5369 H       
  45 H45           -0.9108     2.7861     2.1931 H       
  46 H46           -0.6876     4.4107    -2.4135 H       
  47 H47           -0.4236     0.0385    -4.2578 H       
  48 H48           -2.4318    -0.2334    -0.4744 H       
  49 H49           -1.9591     2.1403    -0.0553 H       
  50 H50           -2.5329    -4.4239    -1.3676 H       
  51 H51           -1.8537    -4.1795    -2.9979 H       
  52 H52           -0.5492    -5.8069    -1.5125 H       
  53 H53            0.4092    -4.4595    -2.1796 H       
  54 H54            0.2376    -2.6986     1.2019 H       
  55 H55            0.9167    -2.4542    -0.4284 H       
  56 H56           -1.0579    -1.0720    -0.2859 H       
  57 H57           -2.0186    -2.4159     0.3849 H       
  58 H58            0.3213    -6.6742     3.0965 H       
  59 H59            1.2485    -5.9293     5.2794 H       
  60 H60            2.0885    -3.6008     5.4840 H       
  61 H61            3.1840    -1.6702     3.3038 H       
  62 H62            1.5660    -1.0549     2.8892 H       
  63 H63            1.9967    -1.3502     4.5908 H       
  64 H64            1.1219     2.5964    -5.8618 H       
  65 H65            1.2558     1.0723    -4.9523 H       
  66 H66           -0.2813     1.5086    -5.7366 H       
@<TRIPOS>BOND
   1    1    2 ar
   2    1   10 ar
   3    2    3 ar
   4    2   40 1
   5    3    4 ar
   6    3   41 1
   7    4    5 ar
   8    4   42 1
   9    5    6 ar
  10    5   10 ar
  11    6    7 ar
  12    6   43 1
  13    7    8 ar
  14    7   44 1
  15    8    9 ar
  16    8   45 1
  17    9   10 ar
  18    9   11 1
  19   11   12 2
  20   11   13 2
  21   11   14 am
  22   14   15 1
  23   14   46 1
  24   15   16 ar
  25   15   20 ar
  26   16   17 ar
  27   16   38 1
  28   17   18 ar
  29   17   47 1
  30   18   19 ar
  31   18   21 1
  32   19   20 ar
  33   19   48 1
  34   20   49 1
  35   21   22 2
  36   21   23 am
  37   23   24 1
  38   23   28 1
  39   24   25 1
  40   24   50 1
  41   24   51 1
  42   25   26 1
  43   25   52 1
  44   25   53 1
  45   26   27 1
  46   26   35 am
  47   27   28 1
  48   27   54 1
  49   27   55 1
  50   28   56 1
  51   28   57 1
  52   29   30 ar
  53   29   34 ar
  54   29   35 1
  55   30   31 ar
  56   30   58 1
  57   31   32 ar
  58   31   59 1
  59   32   33 ar
  60   32   60 1
  61   33   34 ar
  62   33   37 1
  63   35   36 2
  64   37   61 1
  65   37   62 1
  66   37   63 1
  67   38   39 1
  68   39   64 1
  69   39   65 1
  70   39   66 1

#	End of record

