#	Name: ASD03330533
#	Creating user name:	WinNT
#	Creation time:	15. 06. 2019 20:37

#	Modifying user name:	WinNT
#	Modification time:	15. 06. 2019 20:37

#	Program:	/corina/corina34_cracker 3.40 0067  02.08.2006

@<TRIPOS>MOLECULE
ASD03330533
  67   70    0    0    0
SMALL
NO_CHARGES


@<TRIPOS>ATOM
   1 C1            -0.3212     1.1674     0.8832 C.2     
   2 N2            -0.3463    -0.1655     1.1189 N.pl3   
   3 C3             0.9837     1.5572     0.9171 C.2     
   4 N4             1.7350     0.4599     1.1544 N.2     
   5 C5             0.9443    -0.5808     1.2713 C.2     
   6 C6             1.3795    -1.9717     1.5264 C.ar    
   7 C7             1.4858     2.9297     0.7280 C.2     
   8 O8             0.7058     3.8391     0.5188 O.2     
   9 C9             3.3084     4.5417     0.5988 C.3     
  10 N10            2.8093     3.1772     0.7869 N.am    
  11 C11            3.4709     4.8238    -0.8961 C.3     
  12 C12            2.0980     4.8042    -1.5710 C.3     
  13 C13            4.1143     6.1985    -1.0887 C.3     
  14 C14            4.3630     3.7508    -1.5236 C.3     
  15 C15            4.6419     4.6879     1.2855 C.2     
  16 N16            5.1757     5.9120     1.4672 N.am    
  17 O17            5.2347     3.7040     1.6746 O.2     
  18 C18            6.5042     6.0498     2.0692 C.3     
  19 C19            2.6299    -2.4063     1.0861 C.ar    
  20 C20            0.5435    -2.8524     2.2133 C.ar    
  21 C21            0.9551    -4.1482     2.4481 C.ar    
  22 C22            2.1941    -4.5747     2.0043 C.ar    
  23 C23            3.0299    -3.7047     1.3272 C.ar    
  24 C24           -1.5542    -0.9910     1.2053 C.3     
  25 C25           -2.4717    -0.6653     0.0227 C.3     
  26 C26           -3.3830     0.5034     0.3843 C.3     
  27 N27           -2.6994     1.4479     1.2704 N.3     
  28 C28           -1.5220     2.0374     0.6160 C.3     
  29 C29           -3.6205     2.4927     1.7373 C.3     
  30 C30           -2.9485     3.3074     2.8444 C.3     
  31 C31           -3.7040     4.5234     3.3844 C.3     
  32 C32           -3.5783     3.2599     4.2380 C.3     
  33 H33            2.5995     5.2501     1.0273 H       
  34 H34            3.4314     2.4519     0.9537 H       
  35 H35            1.4624     5.5687    -1.1240 H       
  36 H36            2.2138     5.0052    -2.6360 H       
  37 H37            1.6396     3.8249    -1.4338 H       
  38 H38            5.0751     6.2253    -0.5745 H       
  39 H39            4.2662     6.3829    -2.1522 H       
  40 H40            3.4601     6.9668    -0.6765 H       
  41 H41            3.9047     2.7714    -1.3864 H       
  42 H42            4.4788     3.9518    -2.5886 H       
  43 H43            5.3411     3.7647    -1.0428 H       
  44 H44            4.6803     6.7018     1.1994 H       
  45 H45            7.2382     5.5314     1.4523 H       
  46 H46            6.7656     7.1060     2.1347 H       
  47 H47            6.4972     5.6146     3.0685 H       
  48 H48            3.2833    -1.7281     0.5575 H       
  49 H49           -0.4237    -2.5205     2.5609 H       
  50 H50            0.3089    -4.8310     2.9797 H       
  51 H51            2.5121    -5.5898     2.1911 H       
  52 H52            3.9959    -4.0436     0.9829 H       
  53 H53           -1.2782    -2.0450     1.1726 H       
  54 H54           -2.0745    -0.7786     2.1392 H       
  55 H55           -1.8660    -0.3982    -0.8433 H       
  56 H56           -3.0792    -1.5382    -0.2160 H       
  57 H57           -3.6813     1.0202    -0.5278 H       
  58 H58           -4.2724     0.1219     0.8857 H       
  59 H59           -1.3448     3.0359     1.0158 H       
  60 H60           -1.6952     2.0995    -0.4583 H       
  61 H61           -3.8755     3.1502     0.9062 H       
  62 H62           -4.5276     2.0301     2.1262 H       
  63 H63           -1.8623     3.3755     2.7847 H       
  64 H64           -3.1147     5.3913     3.6803 H       
  65 H65           -4.6797     4.7430     2.9510 H       
  66 H66           -4.4713     2.6481     4.3661 H       
  67 H67           -2.9063     3.2965     5.0955 H       
@<TRIPOS>BOND
   1    1    2 1
   2    1    3 2
   3    1   28 1
   4    2   24 1
   5    2    5 1
   6    3    4 1
   7    3    7 1
   8    4    5 2
   9    5    6 1
  10    6   19 ar
  11    6   20 ar
  12    7    8 2
  13    7   10 am
  14    9   10 1
  15    9   11 1
  16    9   15 1
  17    9   33 1
  18   10   34 1
  19   11   12 1
  20   11   13 1
  21   11   14 1
  22   12   35 1
  23   12   36 1
  24   12   37 1
  25   13   38 1
  26   13   39 1
  27   13   40 1
  28   14   41 1
  29   14   42 1
  30   14   43 1
  31   15   16 am
  32   15   17 2
  33   16   18 1
  34   16   44 1
  35   18   45 1
  36   18   46 1
  37   18   47 1
  38   19   23 ar
  39   19   48 1
  40   20   21 ar
  41   20   49 1
  42   21   22 ar
  43   21   50 1
  44   22   23 ar
  45   22   51 1
  46   23   52 1
  47   24   25 1
  48   24   53 1
  49   24   54 1
  50   25   26 1
  51   25   55 1
  52   25   56 1
  53   26   27 1
  54   26   57 1
  55   26   58 1
  56   27   28 1
  57   27   29 1
  58   28   59 1
  59   28   60 1
  60   29   30 1
  61   29   61 1
  62   29   62 1
  63   30   31 1
  64   30   32 1
  65   30   63 1
  66   31   32 1
  67   31   64 1
  68   31   65 1
  69   32   66 1
  70   32   67 1

#	End of record

