#	Name: ASD01840234
#	Creating user name:	WinNT
#	Creation time:	15. 06. 2019 19:37

#	Modifying user name:	WinNT
#	Modification time:	15. 06. 2019 19:37

#	Program:	/corina/corina34_cracker 3.40 0067  02.08.2006

@<TRIPOS>MOLECULE
ASD01840234
  40   43    0    0    0
SMALL
NO_CHARGES


@<TRIPOS>ATOM
   1 C1             0.7172     1.3917    -0.3264 C.3     
   2 N2             0.5520    -0.0623    -0.2581 N.am    
   3 C3             0.2963    -0.7443    -1.3890 C.2     
   4 O4             0.2064    -0.1475    -2.4465 O.2     
   5 C5             0.1256    -2.1983    -1.3594 C.2     
   6 C6            -0.1418    -3.1674    -2.3442 C.2     
   7 C7            -0.1921    -4.3800    -1.7211 C.2     
   8 C8            -0.4470    -5.6682    -2.3766 C.2     
   9 O9            -0.3696    -6.7014    -1.7384 O.2     
  10 N10           -0.7668    -5.7069    -3.6853 N.am    
  11 C11           -0.9131    -6.9959    -4.3658 C.3     
  12 C12           -2.3690    -7.3478    -4.7252 C.3     
  13 O13           -2.0940    -6.7046    -5.9860 O.3     
  14 C14           -0.6731    -6.9275    -5.8858 C.3     
  15 N15            0.0369    -4.1951    -0.3718 N.pl3   
  16 C16            0.0652    -5.2541     0.6402 C.3     
  17 C17            0.2320    -2.8734    -0.1360 C.2     
  18 C18            0.5126    -2.0871     1.0718 C.ar    
  19 C19            0.6292    -2.7096     2.3171 C.ar    
  20 C20            0.8931    -1.9536     3.4376 C.ar    
  21 C21            1.0428    -0.5788     3.3342 C.ar    
  22 C22            0.9302     0.0499     2.1125 C.ar    
  23 C23            0.6691    -0.6945     0.9663 C.ar    
  24 H24            1.7660     1.6304    -0.5028 H       
  25 H25            0.1123     1.7882    -1.1419 H       
  26 H26            0.3961     1.8385     0.6145 H       
  27 H27           -0.2816    -2.9847    -3.3994 H       
  28 H28           -0.9001    -4.8812    -4.1765 H       
  29 H29           -0.3726    -7.8027    -3.8708 H       
  30 H30           -2.5564    -8.4184    -4.8080 H       
  31 H31           -3.1108    -6.8291    -4.1181 H       
  32 H32           -0.0699    -6.0755    -6.1992 H       
  33 H33           -0.3427    -7.8698    -6.3229 H       
  34 H34            1.0962    -5.5611     0.8162 H       
  35 H35           -0.3662    -4.8807     1.5689 H       
  36 H36           -0.5133    -6.1083     0.2885 H       
  37 H37            0.5124    -3.7800     2.4009 H       
  38 H38            0.9835    -2.4333     4.4009 H       
  39 H39            1.2493     0.0049     4.2191 H       
  40 H40            1.0481     1.1213     2.0444 H       
@<TRIPOS>BOND
   1    1    2 1
   2    1   24 1
   3    1   25 1
   4    1   26 1
   5    2   23 1
   6    2    3 am
   7    3    4 2
   8    3    5 1
   9    5   17 2
  10    5    6 1
  11    6    7 2
  12    6   27 1
  13    7    8 1
  14    7   15 1
  15    8    9 2
  16    8   10 am
  17   10   11 1
  18   10   28 1
  19   11   14 1
  20   11   12 1
  21   11   29 1
  22   12   13 1
  23   12   30 1
  24   12   31 1
  25   13   14 1
  26   14   32 1
  27   14   33 1
  28   15   16 1
  29   15   17 1
  30   16   34 1
  31   16   35 1
  32   16   36 1
  33   17   18 1
  34   18   23 ar
  35   18   19 ar
  36   19   20 ar
  37   19   37 1
  38   20   21 ar
  39   20   38 1
  40   21   22 ar
  41   21   39 1
  42   22   23 ar
  43   22   40 1

#	End of record

