#	Name: ASD07998001
#	Creating user name:	WinNT
#	Creation time:	15. 06. 2019 21:14

#	Modifying user name:	WinNT
#	Modification time:	15. 06. 2019 21:14

#	Program:	/corina/corina34_cracker 3.40 0067  02.08.2006

@<TRIPOS>MOLECULE
ASD07998001
  43   45    0    0    0
SMALL
NO_CHARGES


@<TRIPOS>ATOM
   1 C1            -2.3753     1.4967    -1.0974 C.3     
   2 C2            -2.3488    -0.0330    -1.1061 C.3     
   3 C3            -1.4333    -0.5336     0.0129 C.3     
   4 N4            -3.2543     1.9773    -2.1718 N.3     
   5 C5            -3.4936     3.4216    -2.0498 C.3     
   6 C6            -2.7023     1.6449    -3.4919 C.3     
   7 N7            -1.5040    -1.9992     0.0846 N.3     
   8 C8            -2.7664    -2.4180     0.4910 C.2     
   9 C9            -3.1570    -3.8326     0.4312 C.2     
  10 C10           -2.2424    -4.8533    -0.0871 C.2     
  11 C11           -0.9707    -4.9033     0.1285 C.2     
  12 C12           -0.2035    -3.9492     0.9341 C.2     
  13 C13           -0.4849    -2.5089     0.8818 C.2     
  14 C14           -4.3583    -4.1996     0.8391 C.2     
  15 C15           -5.3094    -3.1967     1.3436 C.2     
  16 C16           -4.9618    -1.9283     1.3902 C.2     
  17 C17           -3.6216    -1.5185     0.9418 C.2     
  18 C18            0.2351    -1.6720     1.6065 C.2     
  19 C19            1.3124    -2.1777     2.4720 C.2     
  20 C20            1.5590    -3.4692     2.5253 C.2     
  21 C21            0.7607    -4.4023     1.7144 C.2     
  22 Cl22          -6.0823    -0.7407     1.9801 Cl      
  23 H23           -2.7507     1.8481    -0.1363 H       
  24 H24           -1.3666     1.8785    -1.2551 H       
  25 H25           -3.3575    -0.4148    -0.9484 H       
  26 H26           -1.9734    -0.3845    -2.0672 H       
  27 H27           -0.4073    -0.2291    -0.1935 H       
  28 H28           -1.7547    -0.1074     0.9632 H       
  29 H29           -2.5441     3.9536    -2.1106 H       
  30 H30           -4.1471     3.7511    -2.8574 H       
  31 H31           -3.9669     3.6317    -1.0907 H       
  32 H32           -2.6004     0.5633    -3.5813 H       
  33 H33           -3.3726     2.0121    -4.2690 H       
  34 H34           -1.7242     2.1125    -3.6051 H       
  35 H35           -2.6691    -5.6310    -0.7031 H       
  36 H36           -0.4252    -5.7186    -0.3234 H       
  37 H37           -4.6439    -5.2405     0.8019 H       
  38 H38           -6.2913    -3.5010     1.6748 H       
  39 H39           -3.3361    -0.4776     0.9815 H       
  40 H40            0.0327    -0.6121     1.5636 H       
  41 H41            1.8999    -1.4900     3.0621 H       
  42 H42            2.3462    -3.8437     3.1628 H       
  43 H43            0.9642    -5.4621     1.7574 H       
@<TRIPOS>BOND
   1    1    2 1
   2    1    4 1
   3    1   23 1
   4    1   24 1
   5    2    3 1
   6    2   25 1
   7    2   26 1
   8    3    7 1
   9    3   27 1
  10    3   28 1
  11    4    5 1
  12    4    6 1
  13    5   29 1
  14    5   30 1
  15    5   31 1
  16    6   32 1
  17    6   33 1
  18    6   34 1
  19    7    8 1
  20    7   13 1
  21    8    9 1
  22    8   17 2
  23    9   10 1
  24    9   14 2
  25   10   11 2
  26   10   35 1
  27   11   12 1
  28   11   36 1
  29   12   13 1
  30   12   21 2
  31   13   18 2
  32   14   15 1
  33   14   37 1
  34   15   16 2
  35   15   38 1
  36   16   17 1
  37   16   22 1
  38   17   39 1
  39   18   19 1
  40   18   40 1
  41   19   20 2
  42   19   41 1
  43   20   21 1
  44   20   42 1
  45   21   43 1

#	End of record

