#	Name: ASD01810068
#	Creating user name:	WinNT
#	Creation time:	15. 06. 2019 19:23

#	Modifying user name:	WinNT
#	Modification time:	15. 06. 2019 19:23

#	Program:	/corina/corina34_cracker 3.40 0067  02.08.2006

@<TRIPOS>MOLECULE
ASD01810068
  37   39    0    0    0
SMALL
NO_CHARGES


@<TRIPOS>ATOM
   1 C1            -0.0168     1.3843     0.0097 C.ar    
   2 C2             0.0021    -0.0041     0.0020 C.ar    
   3 C3            -1.1777    -0.7246     0.0094 C.ar    
   4 C4            -2.3999    -0.0665     0.0251 C.ar    
   5 C5            -2.4192     1.3375     0.0333 C.ar    
   6 C6            -1.2260     2.0594     0.0306 C.ar    
   7 N7            -3.7078    -0.5524     0.0356 N.am    
   8 C8            -4.6034     0.4498     0.0503 C.2     
   9 C9            -3.8381     1.7397     0.0499 C.2     
  10 O10           -4.2876     2.8669     0.0615 O.2     
  11 O11           -5.8108     0.3324     0.0613 O.2     
  12 C12           -4.0602    -1.9744     0.0303 C.3     
  13 C13           -4.1664    -2.4709     1.4492 C.ar    
  14 C14           -5.3778    -2.4102     2.1128 C.ar    
  15 C15           -5.4777    -2.8647     3.4135 C.ar    
  16 C16           -4.3612    -3.3824     4.0539 C.ar    
  17 C17           -3.1468    -3.4422     3.3858 C.ar    
  18 C18           -3.0534    -2.9916     2.0832 C.ar    
  19 O19           -4.4569    -3.8297     5.3336 O.3     
  20 C20           -3.2668    -4.3497     5.9297 C.3     
  21 O21            1.1513     2.0807     0.0022 O.3     
  22 C22            2.3605     1.3194    -0.0134 C.3     
  23 F23            2.3928     0.5189    -1.1603 F       
  24 F24            3.4579     2.1871    -0.0192 F       
  25 F25            2.4146     0.5067     1.1241 F       
  26 H26            0.9475    -0.5260    -0.0102 H       
  27 H27           -1.1484    -1.8042     0.0026 H       
  28 H28           -1.2448     3.1392     0.0373 H       
  29 H29           -5.0167    -2.1098    -0.4746 H       
  30 H30           -3.2891    -2.5379    -0.4951 H       
  31 H31           -6.2466    -2.0068     1.6140 H       
  32 H32           -6.4242    -2.8167     3.9316 H       
  33 H33           -2.2762    -3.8448     3.8822 H       
  34 H34           -2.1083    -3.0380     1.5627 H       
  35 H35           -2.9107    -5.1999     5.3481 H       
  36 H36           -2.5005    -3.5747     5.9468 H       
  37 H37           -3.4814    -4.6710     6.9489 H       
@<TRIPOS>BOND
   1    1    2 ar
   2    1   21 1
   3    1    6 ar
   4    2    3 ar
   5    2   26 1
   6    3    4 ar
   7    3   27 1
   8    4    5 ar
   9    4    7 1
  10    5    6 ar
  11    5    9 1
  12    6   28 1
  13    7    8 am
  14    7   12 1
  15    8    9 1
  16    8   11 2
  17    9   10 2
  18   12   13 1
  19   12   29 1
  20   12   30 1
  21   13   14 ar
  22   13   18 ar
  23   14   15 ar
  24   14   31 1
  25   15   16 ar
  26   15   32 1
  27   16   17 ar
  28   16   19 1
  29   17   18 ar
  30   17   33 1
  31   18   34 1
  32   19   20 1
  33   20   35 1
  34   20   36 1
  35   20   37 1
  36   21   22 1
  37   22   23 1
  38   22   24 1
  39   22   25 1

#	End of record

