#	Name: ASD01190023
#	Creating user name:	WinNT
#	Creation time:	15. 06. 2019 19:07

#	Modifying user name:	WinNT
#	Modification time:	15. 06. 2019 19:07

#	Program:	/corina/corina34_cracker 3.40 0067  02.08.2006

@<TRIPOS>MOLECULE
ASD01190023
  53   56    0    0    0
SMALL
NO_CHARGES


@<TRIPOS>ATOM
   1 C1             0.9363     1.3283     0.4807 C.3     
   2 C2            -3.5137     0.0483     5.2141 C.ar    
   3 C3            -2.7738     0.1445     6.3825 C.ar    
   4 C4            -1.3918     0.1608     6.3248 C.ar    
   5 C5            -0.7308     0.0817     5.1054 C.ar    
   6 C6            -1.4789     0.0030     3.9414 C.ar    
   7 C7            -2.8611    -0.0204     3.9984 C.ar    
   8 C8             0.7761     0.0742     5.1320 C.3     
   9 C9             1.3790     0.2598     3.7319 C.3     
  10 C10            0.5928    -0.6558     2.8010 C.3     
  11 C11           -0.7868    -0.0118     2.6108 C.3     
  12 C12            1.2034    -0.9952     1.4869 C.3     
  13 C13            0.6280    -0.1623     0.3222 C.3     
  14 C14           -0.8509    -0.3831     0.1426 C.3     
  15 C15           -1.5283    -0.7072     1.4885 C.3     
  16 C16            2.7114    -0.7601     1.3140 C.3     
  17 C17            2.8856    -0.7929    -0.2301 C.3     
  18 C18            1.4910    -0.6473    -0.8299 C.2     
  19 O19           -3.4060     0.2147     7.5842 O.3     
  20 O20            1.1353    -0.8616    -1.9569 O.2     
  21 C21           -3.4656     1.4204     8.1720 C.2     
  22 C22           -4.1432     1.5740     9.5093 C.3     
  23 C23           -4.0719     3.0368     9.9520 C.3     
  24 C24           -4.7496     3.1905    11.2893 C.2     
  25 O25           -2.9758     2.3822     7.6288 O.2     
  26 O26           -4.8091     4.3958    11.8770 O.3     
  27 O27           -5.2393     2.2287    11.8325 O.2     
  28 H28            2.0087     1.4909     0.3737 H       
  29 H29            0.4050     1.8927    -0.2857 H       
  30 H30            0.6146     1.6630     1.4669 H       
  31 H31           -4.5924     0.0265     5.2497 H       
  32 H32           -0.8185     0.2409     7.2368 H       
  33 H33           -3.4401    -0.0912     3.0911 H       
  34 H34            1.1231     0.8855     5.7703 H       
  35 H35            1.1199    -0.8753     5.5375 H       
  36 H36            1.2660     1.2974     3.4233 H       
  37 H37            2.4284    -0.0213     3.7469 H       
  38 H38            0.4265    -1.6029     3.3536 H       
  39 H39           -0.6516     1.0381     2.3462 H       
  40 H40            1.0099    -2.0706     1.2768 H       
  41 H41           -1.3073     0.5176    -0.2864 H       
  42 H42           -1.0200    -1.2107    -0.5576 H       
  43 H43           -1.5271    -1.7880     1.6498 H       
  44 H44           -2.5664    -0.3617     1.4584 H       
  45 H45            3.0203     0.1942     1.7291 H       
  46 H46            3.2771    -1.5728     1.7761 H       
  47 H47            3.5234     0.0289    -0.5518 H       
  48 H48            3.3218    -1.7448    -0.5336 H       
  49 H49           -5.1867     1.2704     9.4248 H       
  50 H50           -3.6407     0.9467    10.2454 H       
  51 H51           -3.0285     3.3404    10.0365 H       
  52 H52           -4.5745     3.6642     9.2159 H       
  53 H53           -5.2539     4.4447    12.7342 H       
@<TRIPOS>BOND
   1    1   13 1
   2    1   28 1
   3    1   29 1
   4    1   30 1
   5    2    3 ar
   6    2    7 ar
   7    2   31 1
   8    3    4 ar
   9    3   19 1
  10    4    5 ar
  11    4   32 1
  12    5    6 ar
  13    5    8 1
  14    6    7 ar
  15    6   11 1
  16    7   33 1
  17    8    9 1
  18    8   34 1
  19    8   35 1
  20    9   10 1
  21    9   36 1
  22    9   37 1
  23   10   11 1
  24   10   12 1
  25   10   38 1
  26   11   15 1
  27   11   39 1
  28   12   13 1
  29   12   16 1
  30   12   40 1
  31   13   14 1
  32   13   18 1
  33   14   15 1
  34   14   41 1
  35   14   42 1
  36   15   43 1
  37   15   44 1
  38   16   17 1
  39   16   45 1
  40   16   46 1
  41   17   18 1
  42   17   47 1
  43   17   48 1
  44   18   20 2
  45   19   21 1
  46   21   22 1
  47   21   25 2
  48   22   23 1
  49   22   49 1
  50   22   50 1
  51   23   24 1
  52   23   51 1
  53   23   52 1
  54   24   26 1
  55   24   27 2
  56   26   53 1

#	End of record

