#	Name: ASD08150415
#	Creating user name:	WinNT
#	Creation time:	15. 06. 2019 21:16

#	Modifying user name:	WinNT
#	Modification time:	15. 06. 2019 21:16

#	Program:	/corina/corina34_cracker 3.40 0067  02.08.2006

@<TRIPOS>MOLECULE
ASD08150415
  40   44    0    0    0
SMALL
NO_CHARGES


@<TRIPOS>ATOM
   1 N1             1.0116     3.1212    -1.6833 N.am    
   2 C2             1.4532     2.5160    -2.8029 C.2     
   3 C3             2.6609     1.7888    -2.8042 C.2     
   4 C4             3.3989     1.6882    -1.6694 C.2     
   5 C5             2.9374     2.3237    -0.4896 C.ar    
   6 C6             3.6648     2.2509     0.7139 C.ar    
   7 N7             3.2369     2.8385     1.8005 N.ar    
   8 C8             2.0924     3.5382     1.8349 C.ar    
   9 C9             1.2961     3.6643     0.6701 C.ar    
  10 C10            1.7312     3.0402    -0.5224 C.ar    
  11 C11            0.1050     4.3957     0.7166 C.ar    
  12 C12           -0.2839     4.9907     1.9051 C.ar    
  13 C13            0.5089     4.8617     3.0534 C.ar    
  14 C14            1.6697     4.1533     3.0245 C.ar    
  15 O15            0.7994     2.5979    -3.8287 O.2     
  16 C16           -1.5465     5.7692     1.9628 C.2     
  17 C17           -0.1884     3.8426    -1.7093 C.ar    
  18 C18           -0.1769     5.2007    -1.9976 C.ar    
  19 C19           -1.3625     5.9106    -2.0232 C.ar    
  20 C20           -2.5617     5.2673    -1.7612 C.ar    
  21 C21           -2.5743     3.9128    -1.4735 C.ar    
  22 C22           -1.3922     3.1992    -1.4523 C.ar    
  23 Cl23          -1.3495     7.6089    -2.3830 Cl      
  24 C24           -1.7590     6.9088     2.6827 C.2     
  25 F25           -3.7198     5.9625    -1.7861 F       
  26 N26           -3.0308     7.2991     2.4625 N.pl3   
  27 N27           -3.6242     6.3827     1.5859 N.2     
  28 C28           -2.7413     5.4694     1.2796 C.2     
  29 H29            2.9998     1.3099    -3.7109 H       
  30 H30            4.3244     1.1315    -1.6655 H       
  31 H31            4.5929     1.6994     0.7398 H       
  32 H32           -0.5067     4.4961    -0.1678 H       
  33 H33            0.1940     5.3311     3.9737 H       
  34 H34            2.2685     4.0642     3.9189 H       
  35 H35            0.7577     5.7021    -2.2014 H       
  36 H36           -3.5098     3.4132    -1.2697 H       
  37 H37           -1.4029     2.1428    -1.2278 H       
  38 H38           -1.0390     7.4077     3.3145 H       
  39 H39           -3.4603     8.0800     2.8453 H       
  40 H40           -2.9016     4.6279     0.6219 H       
@<TRIPOS>BOND
   1    1    2 am
   2    1   10 1
   3    1   17 1
   4    2    3 1
   5    2   15 2
   6    3    4 2
   7    3   29 1
   8    4    5 1
   9    4   30 1
  10    5    6 ar
  11    5   10 ar
  12    6    7 ar
  13    6   31 1
  14    7    8 ar
  15    8    9 ar
  16    8   14 ar
  17    9   10 ar
  18    9   11 ar
  19   11   12 ar
  20   11   32 1
  21   12   13 ar
  22   12   16 1
  23   13   14 ar
  24   13   33 1
  25   14   34 1
  26   16   24 2
  27   16   28 1
  28   17   18 ar
  29   17   22 ar
  30   18   19 ar
  31   18   35 1
  32   19   20 ar
  33   19   23 1
  34   20   21 ar
  35   20   25 1
  36   21   22 ar
  37   21   36 1
  38   22   37 1
  39   24   26 1
  40   24   38 1
  41   26   27 1
  42   26   39 1
  43   27   28 2
  44   28   40 1

#	End of record

