#	Name: ASD00431128
#	Creating user name:	WinNT
#	Creation time:	15. 06. 2019 18:35

#	Modifying user name:	WinNT
#	Modification time:	15. 06. 2019 18:35

#	Program:	/corina/corina34_cracker 3.40 0067  02.08.2006

@<TRIPOS>MOLECULE
ASD00431128
  48   50    0    0    0
SMALL
NO_CHARGES


@<TRIPOS>ATOM
   1 C1             0.4406     1.7775    -0.4414 C.2     
   2 C2             0.5558     0.2786    -0.5470 C.3     
   3 O3             1.4415     2.4611    -0.3987 O.2     
   4 N4            -0.7747     2.3587    -0.4000 N.am    
   5 C5            -0.8866     3.8158    -0.2973 C.3     
   6 C6            -0.7997     4.2317     1.1726 C.3     
   7 O7            -3.3916     3.6447    -0.7172 O.3     
   8 N8            -4.2808     4.2315    -1.2889 N.2     
   9 C9            -3.8319     5.3062    -1.8949 C.2     
  10 C10           -2.4325     5.3532    -1.6286 C.2     
  11 C11           -2.2092     4.2594    -0.8674 C.2     
  12 S12           -3.9884     7.7063    -3.4958 S.3     
  13 C13           -5.5533     8.0827    -4.0717 C.2     
  14 N14           -6.4072     7.1920    -3.6703 N.2     
  15 C15           -5.9441     6.2086    -2.9303 C.2     
  16 C16           -4.6174     6.2707    -2.6910 C.2     
  17 O17           -5.8583     9.1571    -4.8377 O.3     
  18 C18           -7.1310     9.2688    -5.3029 C.ar    
  19 C19           -8.1752     9.4970    -4.4185 C.ar    
  20 C20           -9.4680     9.6104    -4.8912 C.ar    
  21 C21           -9.7223     9.4962    -6.2500 C.ar    
  22 C22           -8.6782     9.2680    -7.1342 C.ar    
  23 C23           -7.3846     9.1602    -6.6624 C.ar    
  24 O24          -10.9951     9.6074    -6.7151 O.3     
  25 C25          -11.1746     9.5591    -8.1320 C.3     
  26 C26          -12.6094     9.1336    -8.4501 C.3     
  27 C27          -10.9093    10.9434    -8.7271 C.3     
  28 H28            1.6082    -0.0040    -0.5723 H       
  29 H29            0.0759    -0.1843     0.3152 H       
  30 H30            0.0666    -0.0599    -1.4604 H       
  31 H31           -1.5752     1.8123    -0.4381 H       
  32 H32           -0.0753     4.2828    -0.8556 H       
  33 H33            0.1569     3.9108     1.5850 H       
  34 H34           -0.8830     5.3158     1.2490 H       
  35 H35           -1.6110     3.7647     1.7309 H       
  36 H36           -1.7168     6.0916    -1.9585 H       
  37 H37           -6.5722     5.4182    -2.5467 H       
  38 H38           -7.9773     9.5856    -3.3605 H       
  39 H39          -10.2810     9.7877    -4.2027 H       
  40 H40           -8.8764     9.1787    -8.1921 H       
  41 H41           -6.5712     8.9870    -7.3514 H       
  42 H42          -10.4783     8.8392    -8.5621 H       
  43 H43          -13.3057     9.8535    -8.0200 H       
  44 H44          -12.7463     9.0968    -9.5308 H       
  45 H45          -12.7984     8.1474    -8.0261 H       
  46 H46           -9.8872    11.2465    -8.5005 H       
  47 H47          -11.0462    10.9066    -9.8079 H       
  48 H48          -11.6056    11.6633    -8.2970 H       
@<TRIPOS>BOND
   1    1    2 1
   2    1    3 2
   3    1    4 am
   4    2   28 1
   5    2   29 1
   6    2   30 1
   7    4    5 1
   8    4   31 1
   9    5    6 1
  10    5   11 1
  11    5   32 1
  12    6   33 1
  13    6   34 1
  14    6   35 1
  15    7    8 1
  16    7   11 1
  17    8    9 2
  18    9   10 1
  19    9   16 1
  20   10   11 2
  21   10   36 1
  22   12   13 1
  23   12   16 1
  24   13   14 2
  25   13   17 1
  26   14   15 1
  27   15   16 2
  28   15   37 1
  29   17   18 1
  30   18   19 ar
  31   18   23 ar
  32   19   20 ar
  33   19   38 1
  34   20   21 ar
  35   20   39 1
  36   21   22 ar
  37   21   24 1
  38   22   23 ar
  39   22   40 1
  40   23   41 1
  41   24   25 1
  42   25   26 1
  43   25   27 1
  44   25   42 1
  45   26   43 1
  46   26   44 1
  47   26   45 1
  48   27   46 1
  49   27   47 1
  50   27   48 1

#	End of record

