#	Name: ASD03330916
#	Creating user name:	WinNT
#	Creation time:	15. 06. 2019 20:38

#	Modifying user name:	WinNT
#	Modification time:	15. 06. 2019 20:38

#	Program:	/corina/corina34_cracker 3.40 0067  02.08.2006

@<TRIPOS>MOLECULE
ASD03330916
  63   65    0    0    0
SMALL
NO_CHARGES


@<TRIPOS>ATOM
   1 N1            -0.1229     1.5117    -0.4341 N.pl3   
   2 C2            -0.0330     0.1638    -0.2724 C.2     
   3 C3             1.2467    -0.6266    -0.1893 C.3     
   4 N4             2.1636     0.0377     0.7502 N.3     
   5 C5             2.9941     1.0316     0.0674 C.3     
   6 C6             2.2265     1.6941    -1.0729 C.3     
   7 C7             1.0099     2.4381    -0.5155 C.3     
   8 C8            -1.4489     1.8287    -0.4925 C.2     
   9 N9            -2.1493     0.7271    -0.3547 N.2     
  10 C10           -1.3043    -0.3188    -0.2138 C.2     
  11 C11           -1.6904    -1.7288    -0.0306 C.2     
  12 O12           -0.8333    -2.5840     0.0846 O.2     
  13 N13           -2.9934    -2.0709     0.0095 N.am    
  14 C14           -3.1556     3.3698    -1.4123 C.2     
  15 C15           -2.0040     3.1865    -0.6798 C.2     
  16 C16           -1.3565     4.3056    -0.1076 C.2     
  17 C17           -1.8884     5.5443    -0.2946 C.2     
  18 C18           -3.0663     5.6854    -1.0500 C.2     
  19 N19           -3.6664     4.6068    -1.5857 N.am    
  20 O20           -3.5477     6.7937    -1.2204 O.2     
  21 C21           -4.8924     4.7779    -2.3693 C.3     
  22 C22            2.9941    -0.9450     1.4589 C.3     
  23 C23           -4.7495    -3.6975    -0.3894 C.2     
  24 C24           -3.3774    -3.4729     0.1917 C.3     
  25 C25           -3.3949    -3.8069     1.6847 C.3     
  26 C26           -4.4468    -2.9465     2.3876 C.3     
  27 O27           -5.5409    -2.7804    -0.4478 O.2     
  28 N28           -5.0972    -4.9177    -0.8442 N.am    
  29 C29           -6.4681    -5.1675    -1.2966 C.3     
  30 C30           -3.7377    -5.2862     1.8724 C.3     
  31 C31           -2.0176    -3.5222     2.2872 C.3     
  32 H32            1.0301    -1.6346     0.1643 H       
  33 H33            1.7087    -0.6767    -1.1753 H       
  34 H34            3.3011     1.7942     0.7831 H       
  35 H35            3.8808     0.5417    -0.3349 H       
  36 H36            2.8789     2.4002    -1.5867 H       
  37 H37            1.8936     0.9315    -1.7769 H       
  38 H38            0.7558     3.2673    -1.1758 H       
  39 H39            1.2405     2.8201     0.4790 H       
  40 H40           -3.6770    -1.3888    -0.0823 H       
  41 H41           -3.6510     2.5182    -1.8549 H       
  42 H42           -0.4527     4.1792     0.4700 H       
  43 H43           -1.4098     6.4123     0.1341 H       
  44 H44           -5.7576     4.7082    -1.7100 H       
  45 H45           -4.8814     5.7549    -2.8524 H       
  46 H46           -4.9502     3.9978    -3.1284 H       
  47 H47            3.5300    -1.5580     0.7342 H       
  48 H48            3.7104    -0.4244     2.0946 H       
  49 H49            2.3583    -1.5819     2.0739 H       
  50 H50           -2.6581    -4.1155    -0.3160 H       
  51 H51           -5.4280    -3.1494     1.9583 H       
  52 H52           -4.4593    -3.1845     3.4512 H       
  53 H53           -4.2026    -1.8927     2.2539 H       
  54 H54           -4.4398    -5.6304    -0.8721 H       
  55 H55           -6.5590    -6.2026    -1.6260 H       
  56 H56           -7.1607    -4.9856    -0.4748 H       
  57 H57           -6.7044    -4.5003    -2.1255 H       
  58 H58           -2.9557    -5.8999     1.4253 H       
  59 H59           -3.8114    -5.5099     2.9366 H       
  60 H60           -4.6903    -5.5026     1.3888 H       
  61 H61           -1.7734    -2.4684     2.1536 H       
  62 H62           -2.0301    -3.7602     3.3509 H       
  63 H63           -1.2682    -4.1352     1.7865 H       
@<TRIPOS>BOND
   1    1    2 1
   2    1    7 1
   3    1    8 1
   4    2    3 1
   5    2   10 2
   6    3    4 1
   7    3   32 1
   8    3   33 1
   9    4    5 1
  10    4   22 1
  11    5    6 1
  12    5   34 1
  13    5   35 1
  14    6    7 1
  15    6   36 1
  16    6   37 1
  17    7   38 1
  18    7   39 1
  19    8    9 2
  20    8   15 1
  21    9   10 1
  22   10   11 1
  23   11   12 2
  24   11   13 am
  25   13   24 1
  26   13   40 1
  27   14   15 2
  28   14   19 1
  29   14   41 1
  30   15   16 1
  31   16   17 2
  32   16   42 1
  33   17   18 1
  34   17   43 1
  35   18   19 am
  36   18   20 2
  37   19   21 1
  38   21   44 1
  39   21   45 1
  40   21   46 1
  41   22   47 1
  42   22   48 1
  43   22   49 1
  44   23   27 2
  45   23   28 am
  46   23   24 1
  47   24   25 1
  48   24   50 1
  49   25   26 1
  50   25   30 1
  51   25   31 1
  52   26   51 1
  53   26   52 1
  54   26   53 1
  55   28   29 1
  56   28   54 1
  57   29   55 1
  58   29   56 1
  59   29   57 1
  60   30   58 1
  61   30   59 1
  62   30   60 1
  63   31   61 1
  64   31   62 1
  65   31   63 1

#	End of record

