#	Name: ASD02508397
#	Creating user name:	WinNT
#	Creation time:	15. 06. 2019 20:24

#	Modifying user name:	WinNT
#	Modification time:	15. 06. 2019 20:24

#	Program:	/corina/corina34_cracker 3.40 0067  02.08.2006

@<TRIPOS>MOLECULE
ASD02508397
  41   43    0    0    0
SMALL
NO_CHARGES


@<TRIPOS>ATOM
   1 C1            -0.1985     1.7487     0.2770 C.2     
   2 C2            -0.1740     0.3497     0.4493 C.2     
   3 C3             1.1157    -0.0408     0.4081 C.2     
   4 N4             1.8913     1.0677     0.2164 N.pl3   
   5 C5             1.0770     2.1621     0.1369 C.2     
   6 C6             3.2858     1.0801     0.1182 C.ar    
   7 C7             4.0237     1.9623     0.9001 C.ar    
   8 N8             3.8917     0.2488    -0.7135 N.ar    
   9 C9             5.2050     0.2273    -0.8367 C.ar    
  10 C10            6.0002     1.0790    -0.0954 C.ar    
  11 C11            5.4045     1.9635     0.7931 C.ar    
  12 S12            1.7002    -1.6948     0.5737 S.o2    
  13 O13            1.6154    -2.2815    -0.7178 O.2     
  14 O14            2.9098    -1.6206     1.3157 O.2     
  15 N15            0.6155    -2.5049     1.5274 N.am    
  16 C16            0.4011    -2.0937     2.8477 C.ar    
  17 C17           -0.8921    -1.9992     3.3446 C.ar    
  18 C18           -1.1028    -1.5933     4.6478 C.ar    
  19 C19           -0.0231    -1.2797     5.4600 C.ar    
  20 C20            1.2689    -1.3734     4.9644 C.ar    
  21 C21            1.4817    -1.7855     3.6635 C.ar    
  22 Cl22           3.2249     3.0473     1.9948 Cl      
  23 C23            7.4993     1.0444    -0.2454 C.3     
  24 F24            7.8513     0.0734    -1.1891 F       
  25 F25            7.9542     2.2965    -0.6727 F       
  26 F26            8.0841     0.7312     0.9863 F       
  27 O27           -0.2315    -0.8796     6.7431 O.3     
  28 C28            0.9259    -0.5725     7.5229 C.3     
  29 H29           -1.0786     2.3744     0.2564 H       
  30 H30           -1.0315    -0.2918     0.5887 H       
  31 H31            1.3994     3.1819    -0.0126 H       
  32 H32            5.6643    -0.4657    -1.5260 H       
  33 H33            6.0038     2.6399     1.3845 H       
  34 H34            0.1287    -3.2644     1.1708 H       
  35 H35           -1.7329    -2.2426     2.7120 H       
  36 H36           -2.1085    -1.5197     5.0344 H       
  37 H37            2.1091    -1.1287     5.5974 H       
  38 H38            2.4879    -1.8588     3.2778 H       
  39 H39            0.6194    -0.2677     8.5235 H       
  40 H40            1.5627    -1.4545     7.5909 H       
  41 H41            1.4784     0.2389     7.0492 H       
@<TRIPOS>BOND
   1    1    2 1
   2    1    5 2
   3    1   29 1
   4    2    3 2
   5    2   30 1
   6    3    4 1
   7    3   12 1
   8    4    5 1
   9    4    6 1
  10    5   31 1
  11    6    7 ar
  12    6    8 ar
  13    7   22 1
  14    7   11 ar
  15    8    9 ar
  16    9   10 ar
  17    9   32 1
  18   10   11 ar
  19   10   23 1
  20   11   33 1
  21   12   13 2
  22   12   14 2
  23   12   15 am
  24   15   16 1
  25   15   34 1
  26   16   17 ar
  27   16   21 ar
  28   17   18 ar
  29   17   35 1
  30   18   19 ar
  31   18   36 1
  32   19   20 ar
  33   19   27 1
  34   20   21 ar
  35   20   37 1
  36   21   38 1
  37   23   24 1
  38   23   25 1
  39   23   26 1
  40   27   28 1
  41   28   39 1
  42   28   40 1
  43   28   41 1

#	End of record

