#	Name: ASD06170201
#	Creating user name:	WinNT
#	Creation time:	15. 06. 2019 21:05

#	Modifying user name:	WinNT
#	Modification time:	15. 06. 2019 21:05

#	Program:	/corina/corina34_cracker 3.40 0067  02.08.2006

@<TRIPOS>MOLECULE
ASD06170201
  67   72    0    0    0
SMALL
NO_CHARGES


@<TRIPOS>ATOM
   1 C1             0.4311    -0.1096    -0.9948 C.2     
   2 C2             1.1188    -1.2158    -1.5577 C.2     
   3 C3             2.4281    -1.4694    -1.1618 C.2     
   4 C4             3.0262    -0.6190    -0.2155 C.2     
   5 C5             2.3109     0.4424     0.2992 C.2     
   6 N6             1.0421     0.6789    -0.0917 N.am    
   7 C7             0.4567    -2.0821    -2.5451 C.2     
   8 O8             1.0903    -2.9512    -3.1135 O.2     
   9 N9            -0.8518    -1.9129    -2.8200 N.am    
  10 C10            4.4203    -0.8622     0.2279 C.ar    
  11 C11            5.1434    -1.9361    -0.2927 C.ar    
  12 N12            4.9874    -0.0545     1.1186 N.ar    
  13 N13            6.3835    -2.1476     0.1050 N.ar    
  14 C14            6.9408    -1.3438     0.9951 C.ar    
  15 C15            6.2294    -0.2749     1.5102 C.ar    
  16 C16            0.3474     1.7660     0.4522 C.ar    
  17 C17           -0.3332     1.6257     1.6545 C.ar    
  18 C18           -1.0171     2.7001     2.1887 C.ar    
  19 C19           -1.0246     3.9147     1.5275 C.ar    
  20 C20           -0.3482     4.0575     0.3299 C.ar    
  21 C21            0.3423     2.9886    -0.2066 C.ar    
  22 O22           -0.7146     0.1301    -1.3340 O.2     
  23 C23           -1.4574    -2.6703    -3.8225 C.ar    
  24 C24           -0.8683    -3.8600    -4.2362 C.ar    
  25 C25           -1.4772    -4.6033    -5.2310 C.ar    
  26 C26           -2.6643    -4.1272    -5.7826 C.ar    
  27 C27           -3.1933    -2.9329    -5.3203 C.ar    
  28 N28           -2.5889    -2.2516    -4.3657 N.ar    
  29 O29           -3.2961    -4.8258    -6.7631 O.3     
  30 N30           -6.0779    -7.6468    -5.6165 N.ar    
  31 C31           -5.5163    -6.8710    -4.7193 C.ar    
  32 C32           -4.5756    -5.9100    -5.0677 C.ar    
  33 C33           -4.2111    -5.7556    -6.3936 C.ar    
  34 C34           -4.8222    -6.5964    -7.3509 C.ar    
  35 C35           -4.5040    -6.4991    -8.7137 C.ar    
  36 C36           -5.1139    -7.3277    -9.6107 C.ar    
  37 C37           -6.0552    -8.2751    -9.1834 C.ar    
  38 C38           -6.3835    -8.3905    -7.8634 C.ar    
  39 C39           -5.7726    -7.5522    -6.9162 C.ar    
  40 O40           -6.6489    -9.0888   -10.0955 O.3     
  41 C41           -7.5995   -10.0338    -9.6002 C.3     
  42 O42           -4.8059    -7.2332   -10.9318 O.3     
  43 C43           -3.8399    -6.2482   -11.3039 C.3     
  44 H44            2.9750    -2.3046    -1.5737 H       
  45 H45            2.7738     1.0934     1.0260 H       
  46 H46           -1.3724    -1.2644    -2.3207 H       
  47 H47            4.6887    -2.5931    -1.0194 H       
  48 H48            7.9562    -1.5202     1.3182 H       
  49 H49            6.6908     0.3811     2.2335 H       
  50 H50           -0.3280     0.6773     2.1712 H       
  51 H51           -1.5470     2.5915     3.1235 H       
  52 H52           -1.5602     4.7534     1.9473 H       
  53 H53           -0.3566     5.0072    -0.1844 H       
  54 H54            0.8744     3.1021    -1.1396 H       
  55 H55            0.0532    -4.1992    -3.7866 H       
  56 H56           -1.0422    -5.5310    -5.5724 H       
  57 H57           -4.1132    -2.5574    -5.7435 H       
  58 H58           -5.7932    -6.9826    -3.6814 H       
  59 H59           -4.1310    -5.2855    -4.3069 H       
  60 H60           -3.7803    -5.7720    -9.0515 H       
  61 H61           -7.1108    -9.1241    -7.5483 H       
  62 H62           -7.1128   -10.6991    -8.8871 H       
  63 H63           -8.4141    -9.5046    -9.1058 H       
  64 H64           -7.9968   -10.6185   -10.4299 H       
  65 H65           -3.6870    -6.2785   -12.3827 H       
  66 H66           -4.1987    -5.2602   -11.0154 H       
  67 H67           -2.8970    -6.4544   -10.7973 H       
@<TRIPOS>BOND
   1    1    2 1
   2    1    6 am
   3    1   22 2
   4    2    3 2
   5    2    7 1
   6    3    4 1
   7    3   44 1
   8    4    5 2
   9    4   10 1
  10    5    6 1
  11    5   45 1
  12    6   16 1
  13    7    8 2
  14    7    9 am
  15    9   23 1
  16    9   46 1
  17   10   11 ar
  18   10   12 ar
  19   11   13 ar
  20   11   47 1
  21   12   15 ar
  22   13   14 ar
  23   14   15 ar
  24   14   48 1
  25   15   49 1
  26   16   17 ar
  27   16   21 ar
  28   17   18 ar
  29   17   50 1
  30   18   19 ar
  31   18   51 1
  32   19   20 ar
  33   19   52 1
  34   20   21 ar
  35   20   53 1
  36   21   54 1
  37   23   24 ar
  38   23   28 ar
  39   24   25 ar
  40   24   55 1
  41   25   26 ar
  42   25   56 1
  43   26   27 ar
  44   26   29 1
  45   27   28 ar
  46   27   57 1
  47   29   33 1
  48   30   31 ar
  49   30   39 ar
  50   31   32 ar
  51   31   58 1
  52   32   33 ar
  53   32   59 1
  54   33   34 ar
  55   34   35 ar
  56   34   39 ar
  57   35   36 ar
  58   35   60 1
  59   36   37 ar
  60   36   42 1
  61   37   38 ar
  62   37   40 1
  63   38   39 ar
  64   38   61 1
  65   40   41 1
  66   41   62 1
  67   41   63 1
  68   41   64 1
  69   42   43 1
  70   43   65 1
  71   43   66 1
  72   43   67 1

#	End of record

