#	Name: ASD02039385
#	Creating user name:	WinNT
#	Creation time:	15. 06. 2019 20:18

#	Modifying user name:	WinNT
#	Modification time:	15. 06. 2019 20:18

#	Program:	/corina/corina34_cracker 3.40 0067  02.08.2006

@<TRIPOS>MOLECULE
ASD02039385
  48   50    0    0    0
SMALL
NO_CHARGES


@<TRIPOS>ATOM
   1 C1            -0.1214     1.5193    -0.1784 C.ar    
   2 C2            -0.1112     0.1412    -0.0694 C.ar    
   3 C3            -1.2931    -0.5714    -0.1582 C.ar    
   4 C4            -2.5030     1.4810    -0.4539 C.ar    
   5 C5            -1.3137     2.1908    -0.3703 C.ar    
   6 N6            -3.7145     2.1599    -0.6492 N.pl3   
   7 C7             1.1694     2.2911    -0.0814 C.3     
   8 N8             1.8246     2.3134    -1.3915 N.am    
   9 C9             1.4058     3.2862    -2.4036 C.3     
  10 C10            2.8128     1.4388    -1.6657 C.2     
  11 C11            3.1755     0.4047    -0.6810 C.2     
  12 C12            4.1869    -0.5030    -0.8003 C.2     
  13 N13            2.5678     0.1853     0.5130 N.2     
  14 C14            3.1597    -0.8085     1.1101 C.2     
  15 N15            4.1700    -1.2598     0.3220 N.pl3   
  16 O16            3.4051     1.5033    -2.7260 O.2     
  17 C17            5.0779    -2.3673     0.6309 C.3     
  18 N18           -3.8715     3.5461    -0.7770 N.2     
  19 C19           -2.4894     0.0938    -0.3560 C.ar    
  20 C20            2.5622     4.2428    -2.7009 C.3     
  21 C21            1.0102     2.5504    -3.6854 C.3     
  22 F22           -3.6441    -0.6020    -0.4428 F       
  23 C23           -4.9371     1.5921    -0.7533 C.2     
  24 C24           -5.8383     2.5851    -0.9356 C.2     
  25 C25           -5.1443     3.7999    -0.9466 C.2     
  26 C26           -7.3262     2.4127    -1.1015 C.3     
  27 H27            0.8219    -0.3802     0.0850 H       
  28 H28           -1.2818    -1.6480    -0.0735 H       
  29 H29           -1.3210     3.2681    -0.4457 H       
  30 H30            0.9592     3.3121     0.2371 H       
  31 H31            1.8256     1.8117     0.6450 H       
  32 H32            0.5521     3.8527    -2.0316 H       
  33 H33            4.8700    -0.5996    -1.6312 H       
  34 H34            2.8927    -1.2078     2.0775 H       
  35 H35            4.6556    -3.2990     0.2545 H       
  36 H36            6.0433    -2.1885     0.1576 H       
  37 H37            5.2101    -2.4384     1.7105 H       
  38 H38            3.3831     3.6897    -3.1573 H       
  39 H39            2.2235     5.0208    -3.3851 H       
  40 H40            2.9039     4.6995    -1.7720 H       
  41 H41            0.2521     1.8018    -3.4553 H       
  42 H42            0.6093     3.2642    -4.4051 H       
  43 H43            1.8873     2.0611    -4.1089 H       
  44 H44           -5.1553     0.5356    -0.7008 H       
  45 H45           -5.5832     4.7785    -1.0730 H       
  46 H46           -7.8071     2.4469    -0.1239 H       
  47 H47           -7.7174     3.2149    -1.7272 H       
  48 H48           -7.5301     1.4515    -1.5733 H       
@<TRIPOS>BOND
   1    1    2 ar
   2    1    7 1
   3    1    5 ar
   4    2    3 ar
   5    2   27 1
   6    3   19 ar
   7    3   28 1
   8    4    5 ar
   9    4    6 1
  10    4   19 ar
  11    5   29 1
  12    6   18 1
  13    6   23 1
  14    7    8 1
  15    7   30 1
  16    7   31 1
  17    8    9 1
  18    8   10 am
  19    9   20 1
  20    9   21 1
  21    9   32 1
  22   10   11 1
  23   10   16 2
  24   11   12 2
  25   11   13 1
  26   12   15 1
  27   12   33 1
  28   13   14 2
  29   14   15 1
  30   14   34 1
  31   15   17 1
  32   17   35 1
  33   17   36 1
  34   17   37 1
  35   18   25 2
  36   19   22 1
  37   20   38 1
  38   20   39 1
  39   20   40 1
  40   21   41 1
  41   21   42 1
  42   21   43 1
  43   23   24 2
  44   23   44 1
  45   24   25 1
  46   24   26 1
  47   25   45 1
  48   26   46 1
  49   26   47 1
  50   26   48 1

#	End of record

