#	Name: ASD01884296
#	Creating user name:	WinNT
#	Creation time:	15. 06. 2019 19:47

#	Modifying user name:	WinNT
#	Modification time:	15. 06. 2019 19:47

#	Program:	/corina/corina34_cracker 3.40 0067  02.08.2006

@<TRIPOS>MOLECULE
ASD01884296
  25   26    0    0    0
SMALL
NO_CHARGES


@<TRIPOS>ATOM
   1 C1             0.4240     0.3601     0.6371 C.ar    
   2 C2             0.0830    -0.0471    -0.6403 C.ar    
   3 C3             0.9026     0.2657    -1.7101 C.ar    
   4 C4             2.0632     0.9861    -1.5048 C.ar    
   5 C5             2.4068     1.3959    -0.2245 C.ar    
   6 C6             1.5837     1.0806     0.8470 C.ar    
   7 O7             3.5485     2.1043    -0.0202 O.3     
   8 Br8           -1.5052    -1.0334    -0.9245 Br      
   9 C9             3.4852     3.4567    -0.1173 C.ar    
  10 C10            2.2666     4.1025    -0.3105 C.ar    
  11 C11            2.2444     5.4791    -0.4042 C.ar    
  12 N12            3.3580     6.1810    -0.3133 N.ar    
  13 C13            4.5315     5.6055    -0.1303 C.ar    
  14 C14            4.6369     4.2344    -0.0204 C.ar    
  15 C15            5.7710     6.4572    -0.0343 C.3     
  16 H16           -0.2194     0.1184     1.4703 H       
  17 H17            0.6349    -0.0538    -2.7065 H       
  18 H18            2.7029     1.2298    -2.3401 H       
  19 H19            1.8491     1.3990     1.8443 H       
  20 H20            1.3516     3.5339    -0.3865 H       
  21 H21            1.3038     5.9883    -0.5541 H       
  22 H22            5.6003     3.7697     0.1293 H       
  23 H23            5.9444     6.7304     1.0065 H       
  24 H24            6.6270     5.8967    -0.4103 H       
  25 H25            5.6382     7.3604    -0.6298 H       
@<TRIPOS>BOND
   1    1    2 ar
   2    1    6 ar
   3    1   16 1
   4    2    3 ar
   5    2    8 1
   6    3    4 ar
   7    3   17 1
   8    4    5 ar
   9    4   18 1
  10    5    6 ar
  11    5    7 1
  12    6   19 1
  13    7    9 1
  14    9   10 ar
  15    9   14 ar
  16   10   11 ar
  17   10   20 1
  18   11   12 ar
  19   11   21 1
  20   12   13 ar
  21   13   14 ar
  22   13   15 1
  23   14   22 1
  24   15   23 1
  25   15   24 1
  26   15   25 1

#	End of record

