#	Name: ASD01914330
#	Creating user name:	WinNT
#	Creation time:	15. 06. 2019 20:03

#	Modifying user name:	WinNT
#	Modification time:	15. 06. 2019 20:03

#	Program:	/corina/corina34_cracker 3.40 0067  02.08.2006

@<TRIPOS>MOLECULE
ASD01914330
  47   50    0    0    0
SMALL
NO_CHARGES


@<TRIPOS>ATOM
   1 C1             0.3214     0.2128    -2.3862 C.2     
   2 N2             0.1494    -1.0241    -1.9903 N.2     
   3 N3            -1.1306    -1.1317    -1.4400 N.pl3   
   4 C4            -1.7152     0.0864    -1.5138 C.2     
   5 C5            -0.8426     0.9339    -2.0910 C.2     
   6 C6            -3.1060     0.3884    -1.0082 C.3     
   7 N7            -3.7418    -0.9055    -0.6963 N.am    
   8 C8            -5.0203    -1.1526    -1.0440 C.2     
   9 O9            -5.4913    -2.2613    -0.8801 O.2     
  10 C10           -5.8492    -0.0763    -1.6242 C.ar    
  11 C11           -6.8313    -0.3804    -2.5693 C.ar    
  12 C12            1.5609     0.7663    -3.0406 C.3     
  13 O13            1.3699     2.1534    -3.3262 O.3     
  14 C14            2.4010     2.8084    -3.9217 C.ar    
  15 C15            2.2839     4.1565    -4.2274 C.ar    
  16 C16            3.3334     4.8201    -4.8328 C.ar    
  17 C17            4.5000     4.1417    -5.1341 C.ar    
  18 C18            4.6191     2.7980    -4.8308 C.ar    
  19 C19            3.5747     2.1314    -4.2198 C.ar    
  20 C20           -1.7598    -2.3317    -0.8815 C.3     
  21 C21           -2.9384    -1.9176     0.0063 C.3     
  22 C22           -5.6573     1.2482    -1.2254 C.ar    
  23 C23           -6.4335     2.2486    -1.7700 C.ar    
  24 C24           -7.4037     1.9418    -2.7119 C.ar    
  25 C25           -7.6019     0.6277    -3.1075 C.ar    
  26 F26           -8.1623     2.9260    -3.2419 F       
  27 C27           -3.8066    -3.1411     0.3065 C.3     
  28 H28           -1.0121     1.9808    -2.2952 H       
  29 H29           -3.0497     1.0015    -0.1088 H       
  30 H30           -3.6771     0.9073    -1.7781 H       
  31 H31           -6.9866    -1.4036    -2.8781 H       
  32 H32            2.4107     0.6474    -2.3684 H       
  33 H33            1.7534     0.2275    -3.9684 H       
  34 H34            1.3727     4.6867    -3.9927 H       
  35 H35            3.2426     5.8695    -5.0713 H       
  36 H36            5.3194     4.6623    -5.6073 H       
  37 H37            5.5310     2.2702    -5.0677 H       
  38 H38            3.6682     1.0818    -3.9831 H       
  39 H39           -2.1198    -2.9649    -1.6924 H       
  40 H40           -1.0309    -2.8813    -0.2859 H       
  41 H41           -2.5617    -1.4997     0.9398 H       
  42 H42           -4.9024     1.4882    -0.4913 H       
  43 H43           -6.2860     3.2733    -1.4623 H       
  44 H44           -8.3587     0.3942    -3.8418 H       
  45 H45           -3.2095    -3.8924     0.8232 H       
  46 H46           -4.6446    -2.8458     0.9379 H       
  47 H47           -4.1843    -3.5566    -0.6277 H       
@<TRIPOS>BOND
   1    1    2 2
   2    1   12 1
   3    1    5 1
   4    2    3 1
   5    3    4 1
   6    3   20 1
   7    4    5 2
   8    4    6 1
   9    5   28 1
  10    6    7 1
  11    6   29 1
  12    6   30 1
  13    7    8 am
  14    7   21 1
  15    8    9 2
  16    8   10 1
  17   10   11 ar
  18   10   22 ar
  19   11   25 ar
  20   11   31 1
  21   12   13 1
  22   12   32 1
  23   12   33 1
  24   13   14 1
  25   14   15 ar
  26   14   19 ar
  27   15   16 ar
  28   15   34 1
  29   16   17 ar
  30   16   35 1
  31   17   18 ar
  32   17   36 1
  33   18   19 ar
  34   18   37 1
  35   19   38 1
  36   20   21 1
  37   20   39 1
  38   20   40 1
  39   21   27 1
  40   21   41 1
  41   22   23 ar
  42   22   42 1
  43   23   24 ar
  44   23   43 1
  45   24   25 ar
  46   24   26 1
  47   25   44 1
  48   27   45 1
  49   27   46 1
  50   27   47 1

#	End of record

