#	Name: ASD02550002
#	Creating user name:	WinNT
#	Creation time:	15. 06. 2019 20:24

#	Modifying user name:	WinNT
#	Modification time:	15. 06. 2019 20:24

#	Program:	/corina/corina34_cracker 3.40 0067  02.08.2006

@<TRIPOS>MOLECULE
ASD02550002
  62   63    0    0    0
SMALL
NO_CHARGES


@<TRIPOS>ATOM
   1 C1            -0.2105     1.1710     0.4270 C.2     
   2 C2            -0.1655    -0.2052     0.1138 C.2     
   3 C3             1.0351    -0.8250    -0.0626 C.2     
   4 C4             2.3064    -0.0158    -0.0728 C.3     
   5 C5             1.0877    -2.2171    -0.2350 C.2     
   6 C6             2.2905    -2.8379    -0.4118 C.2     
   7 C7             2.3431    -4.2297    -0.5841 C.2     
   8 C8             3.5447    -4.8499    -0.7607 C.2     
   9 C9             4.8160    -4.0408    -0.7708 C.3     
  10 C10            3.5975    -6.2449    -0.9334 C.2     
  11 C11            4.7944    -6.8627    -1.1093 C.2     
  12 C12            4.8409    -8.2527    -1.3859 C.2     
  13 C13            4.2866    -9.0805    -0.5166 C.2     
  14 C14            3.6324    -8.4929     0.7072 C.3     
  15 C15            4.2717   -10.5726    -0.6801 C.3     
  16 C16            4.5810   -10.9463    -2.1312 C.3     
  17 C17            5.8432   -10.1939    -2.5699 C.3     
  18 C18            5.5114    -8.7008    -2.6519 C.3     
  19 C19            4.5778    -8.4478    -3.8373 C.3     
  20 C20            6.8043    -7.9068    -2.8496 C.3     
  21 O21            0.8227     1.7828     0.6336 O.2     
  22 N22           -1.3959     1.8090     0.4920 N.am    
  23 C23           -1.4506     3.1432     0.9123 C.ar    
  24 C24           -2.4035     4.0012     0.3789 C.ar    
  25 C25           -2.4568     5.3170     0.7940 C.ar    
  26 C26           -1.5588     5.7821     1.7436 C.ar    
  27 C27           -0.6066     4.9257     2.2769 C.ar    
  28 C28           -0.5557     3.6081     1.8671 C.ar    
  29 O29           -1.6117     7.0781     2.1515 O.3     
  30 H30           -1.0828    -0.7666     0.0141 H       
  31 H31            2.6439     0.1433     0.9514 H       
  32 H32            3.0745    -0.5530    -0.6291 H       
  33 H33            2.1203     0.9474    -0.5478 H       
  34 H34            0.1766    -2.7969    -0.2278 H       
  35 H35            3.2016    -2.2580    -0.4190 H       
  36 H36            1.4320    -4.8095    -0.5768 H       
  37 H37            5.2087    -3.9683     0.2434 H       
  38 H38            5.5515    -4.5277    -1.4112 H       
  39 H39            4.6075    -3.0411    -1.1520 H       
  40 H40            2.6864    -6.8248    -0.9262 H       
  41 H41            5.7106    -6.2952    -1.0386 H       
  42 H42            2.5740    -8.3246     0.5081 H       
  43 H43            3.7393    -9.1838     1.5435 H       
  44 H44            4.1106    -7.5453     0.9553 H       
  45 H45            5.0221   -11.0154    -0.0252 H       
  46 H46            3.2878   -10.9559    -0.4101 H       
  47 H47            4.7510   -12.0205    -2.2044 H       
  48 H48            3.7444   -10.6610    -2.7690 H       
  49 H49            6.6381   -10.3568    -1.8422 H       
  50 H50            6.1608   -10.5516    -3.5494 H       
  51 H51            4.3524    -7.3833    -3.9015 H       
  52 H52            5.0630    -8.7726    -4.7577 H       
  53 H53            3.6529    -9.0072    -3.6972 H       
  54 H54            7.4995    -8.1378    -2.0425 H       
  55 H55            7.2540    -8.1769    -3.8051 H       
  56 H56            6.5803    -6.8401    -2.8420 H       
  57 H57           -2.2111     1.3437     0.2474 H       
  58 H58           -3.1025     3.6394    -0.3607 H       
  59 H59           -3.1976     5.9844     0.3790 H       
  60 H60            0.0921     5.2886     3.0162 H       
  61 H61            0.1826     2.9403     2.2860 H       
  62 H62           -2.1898     7.2278     2.9121 H       
@<TRIPOS>BOND
   1    1    2 1
   2    1   21 2
   3    1   22 am
   4    2    3 2
   5    2   30 1
   6    3    4 1
   7    3    5 1
   8    4   31 1
   9    4   32 1
  10    4   33 1
  11    5    6 2
  12    5   34 1
  13    6    7 1
  14    6   35 1
  15    7    8 2
  16    7   36 1
  17    8    9 1
  18    8   10 1
  19    9   37 1
  20    9   38 1
  21    9   39 1
  22   10   11 2
  23   10   40 1
  24   11   12 1
  25   11   41 1
  26   12   13 2
  27   12   18 1
  28   13   14 1
  29   13   15 1
  30   14   42 1
  31   14   43 1
  32   14   44 1
  33   15   16 1
  34   15   45 1
  35   15   46 1
  36   16   17 1
  37   16   47 1
  38   16   48 1
  39   17   18 1
  40   17   49 1
  41   17   50 1
  42   18   19 1
  43   18   20 1
  44   19   51 1
  45   19   52 1
  46   19   53 1
  47   20   54 1
  48   20   55 1
  49   20   56 1
  50   22   23 1
  51   22   57 1
  52   23   24 ar
  53   23   28 ar
  54   24   25 ar
  55   24   58 1
  56   25   26 ar
  57   25   59 1
  58   26   27 ar
  59   26   29 1
  60   27   28 ar
  61   27   60 1
  62   28   61 1
  63   29   62 1

#	End of record

