#	Name: ASD01150744
#	Creating user name:	WinNT
#	Creation time:	15. 06. 2019 19:04

#	Modifying user name:	WinNT
#	Modification time:	15. 06. 2019 19:04

#	Program:	/corina/corina34_cracker 3.40 0067  02.08.2006

@<TRIPOS>MOLECULE
ASD01150744
  43   45    0    0    0
SMALL
NO_CHARGES


@<TRIPOS>ATOM
   1 C1            -0.0035     1.4277     0.0448 C.2     
   2 C2            -0.5045     1.0174    -1.3160 C.3     
   3 N3             3.5634     2.3109     0.4737 N.ar    
   4 C4             2.4623     1.6154     0.3638 C.ar    
   5 C5             1.2145     2.2345     0.1648 C.ar    
   6 C6             1.1505     3.6383     0.0820 C.ar    
   7 C7             2.3635     4.3613     0.2053 C.ar    
   8 C8             2.3827     5.7600     0.1333 C.ar    
   9 C9             3.5808     6.4295     0.2572 C.ar    
  10 C10            4.7703     5.7237     0.4527 C.ar    
  11 C11            4.7746     4.3643     0.5257 C.ar    
  12 C12            3.5718     3.6497     0.4040 C.ar    
  13 O13            3.6053     7.7865     0.1881 O.3     
  14 C14            4.8789     8.4201     0.3239 C.3     
  15 F15            5.7312     7.9764    -0.6930 F       
  16 F16            4.7223     9.8070     0.2291 F       
  17 F17            5.4302     8.0970     1.5685 F       
  18 C18            2.5308     0.1126     0.4524 C.3     
  19 C19           -0.1349     4.3331    -0.1265 C.ar    
  20 C20           -1.1322     4.2703     0.8509 C.ar    
  21 C21           -2.3302     4.9201     0.6522 C.ar    
  22 C22           -2.5484     5.6371    -0.5182 C.ar    
  23 C23           -1.5595     5.7021    -1.4926 C.ar    
  24 C24           -0.3563     5.0605    -1.2994 C.ar    
  25 O25           -3.7311     6.2754    -0.7104 O.3     
  26 C26           -3.8889     6.9939    -1.9355 C.3     
  27 F27           -1.6230     0.1897    -1.1711 F       
  28 F28           -0.8592     2.1572    -2.0455 F       
  29 F29            0.5037     0.3244    -1.9947 F       
  30 O30           -0.6110     1.0944     1.0407 O.2     
  31 H31            1.4655     6.3096    -0.0184 H       
  32 H32            5.7003     6.2645     0.5470 H       
  33 H33            5.7038     3.8350     0.6769 H       
  34 H34            2.4902    -0.1920     1.4982 H       
  35 H35            1.6883    -0.3219    -0.0856 H       
  36 H36            3.4636    -0.2354     0.0086 H       
  37 H37           -0.9638     3.7127     1.7604 H       
  38 H38           -3.1013     4.8721     1.4069 H       
  39 H39           -1.7332     6.2604    -2.4007 H       
  40 H40            0.4133     5.1152    -2.0552 H       
  41 H41           -3.1240     7.7675    -2.0042 H       
  42 H42           -3.7871     6.3067    -2.7754 H       
  43 H43           -4.8759     7.4556    -1.9614 H       
@<TRIPOS>BOND
   1    1    2 1
   2    1    5 1
   3    1   30 2
   4    2   27 1
   5    2   28 1
   6    2   29 1
   7    3    4 ar
   8    3   12 ar
   9    4    5 ar
  10    4   18 1
  11    5    6 ar
  12    6    7 ar
  13    6   19 1
  14    7    8 ar
  15    7   12 ar
  16    8    9 ar
  17    8   31 1
  18    9   10 ar
  19    9   13 1
  20   10   11 ar
  21   10   32 1
  22   11   12 ar
  23   11   33 1
  24   13   14 1
  25   14   15 1
  26   14   16 1
  27   14   17 1
  28   18   34 1
  29   18   35 1
  30   18   36 1
  31   19   20 ar
  32   19   24 ar
  33   20   21 ar
  34   20   37 1
  35   21   22 ar
  36   21   38 1
  37   22   23 ar
  38   22   25 1
  39   23   24 ar
  40   23   39 1
  41   24   40 1
  42   25   26 1
  43   26   41 1
  44   26   42 1
  45   26   43 1

#	End of record

