#	Name: ASD05720102
#	Creating user name:	WinNT
#	Creation time:	15. 06. 2019 21:01

#	Modifying user name:	WinNT
#	Modification time:	15. 06. 2019 21:01

#	Program:	/corina/corina34_cracker 3.40 0067  02.08.2006

@<TRIPOS>MOLECULE
ASD05720102
  50   54    0    0    0
SMALL
NO_CHARGES


@<TRIPOS>ATOM
   1 C1             0.6055     0.9391    -1.0888 C.2     
   2 N2             0.5291    -0.3572    -0.7604 N.am    
   3 C3             1.7270    -0.7331     0.0051 C.3     
   4 C4             2.5422     0.5726     0.0798 C.3     
   5 N5             1.7170     1.5455    -0.6516 N.am    
   6 O6            -0.2537     1.5122    -1.7302 O.2     
   7 C7             2.7247     1.0093     1.5347 C.3     
   8 C8             3.4200    -0.1056     2.3186 C.3     
   9 C9             3.5802     2.2768     1.5833 C.3     
  10 C10            3.5543     4.6153    -0.6975 C.2     
  11 N11            3.2282     3.3333    -0.5070 N.2     
  12 C12            2.0388     2.8805    -0.8563 C.2     
  13 C13            1.0950     3.7516    -1.4376 C.2     
  14 C14            1.4218     5.0495    -1.6318 C.2     
  15 N15            2.6618     5.4890    -1.2596 N.pl3   
  16 N16            3.2752     6.7447    -1.3316 N.2     
  17 C17            4.4874     6.6632    -0.8411 C.2     
  18 C18            4.7175     5.3471    -0.4210 C.2     
  19 C19            5.9566     4.8263     0.1972 C.ar    
  20 C20            7.1939     5.0778    -0.4000 C.ar    
  21 C21            8.3466     4.5939     0.1751 C.ar    
  22 C22            8.2792     3.8510     1.3564 C.ar    
  23 C23            7.0414     3.5996     1.9536 C.ar    
  24 C24            5.8895     4.0882     1.3810 C.ar    
  25 C25            9.5167     3.3309     1.9738 C.2     
  26 N26           10.7369     3.4981     1.5122 N.2     
  27 C27           11.6051     2.8903     2.3293 C.2     
  28 C28           10.9141     2.3216     3.3377 C.2     
  29 N29            9.5899     2.5998     3.1239 N.pl3   
  30 H30           -0.2006    -0.9533    -0.9908 H       
  31 H31            1.4523    -1.0702     1.0046 H       
  32 H32            2.2893    -1.5057    -0.5192 H       
  33 H33            3.5093     0.4482    -0.4075 H       
  34 H34            1.7498     1.2118     1.9783 H       
  35 H35            4.3949    -0.3081     1.8750 H       
  36 H36            3.5500     0.2055     3.3551 H       
  37 H37            2.8105    -1.0086     2.2840 H       
  38 H38            4.4376     2.1621     0.9202 H       
  39 H39            2.9836     3.1304     1.2613 H       
  40 H40            3.9288     2.4411     2.6029 H       
  41 H41            0.1204     3.3858    -1.7255 H       
  42 H42            0.7115     5.7309    -2.0761 H       
  43 H43            5.1924     7.4782    -0.7691 H       
  44 H44            7.2459     5.6518    -1.3134 H       
  45 H45            9.3033     4.7881    -0.2870 H       
  46 H46            6.9891     3.0253     2.8668 H       
  47 H47            4.9330     3.8976     1.8450 H       
  48 H48           12.6772     2.8601     2.2022 H       
  49 H49           11.3269     1.7566     4.1604 H       
  50 H50            8.8455     2.3271     3.6827 H       
@<TRIPOS>BOND
   1    1    2 am
   2    1    5 am
   3    1    6 2
   4    2    3 1
   5    2   30 1
   6    3    4 1
   7    3   31 1
   8    3   32 1
   9    4    5 1
  10    4    7 1
  11    4   33 1
  12    5   12 1
  13    7    8 1
  14    7    9 1
  15    7   34 1
  16    8   35 1
  17    8   36 1
  18    8   37 1
  19    9   38 1
  20    9   39 1
  21    9   40 1
  22   10   11 1
  23   10   15 1
  24   10   18 2
  25   11   12 2
  26   12   13 1
  27   13   14 2
  28   13   41 1
  29   14   15 1
  30   14   42 1
  31   15   16 1
  32   16   17 2
  33   17   18 1
  34   17   43 1
  35   18   19 1
  36   19   20 ar
  37   19   24 ar
  38   20   21 ar
  39   20   44 1
  40   21   22 ar
  41   21   45 1
  42   22   23 ar
  43   22   25 1
  44   23   24 ar
  45   23   46 1
  46   24   47 1
  47   25   26 2
  48   25   29 1
  49   26   27 1
  50   27   28 2
  51   27   48 1
  52   28   29 1
  53   28   49 1
  54   29   50 1

#	End of record

