#	Name: ASD03092918
#	Creating user name:	WinNT
#	Creation time:	15. 06. 2019 20:33

#	Modifying user name:	WinNT
#	Modification time:	15. 06. 2019 20:33

#	Program:	/corina/corina34_cracker 3.40 0067  02.08.2006

@<TRIPOS>MOLECULE
ASD03092918
  49   51    0    0    0
SMALL
NO_CHARGES


@<TRIPOS>ATOM
   1 C1             2.1896     1.5670    -0.2285 C.3     
   2 C2             2.3904     0.0724    -0.4869 C.3     
   3 C3             1.1264    -0.5122    -1.0628 C.2     
   4 O4             0.1325     0.1765    -1.1683 O.2     
   5 C5             1.0974    -1.9088    -1.4945 C.2     
   6 C6             0.6165    -3.0147    -0.7483 C.2     
   7 C7             0.0379    -2.9683     0.6424 C.3     
   8 C8             0.7723    -4.1227    -1.5171 C.2     
   9 C9             0.3996    -5.4991    -1.1266 C.ar    
  10 C10           -0.2775    -6.3237    -2.0265 C.ar    
  11 C11           -0.6226    -7.6069    -1.6565 C.ar    
  12 C12           -0.2986    -8.0775    -0.3951 C.ar    
  13 Cl13          -0.7363    -9.6937     0.0633 Cl      
  14 C14            0.3735    -7.2643     0.5018 C.ar    
  15 C15            0.7285    -5.9811     0.1413 C.ar    
  16 N16            1.3323    -3.7567    -2.7174 N.pl3   
  17 C17            1.6566    -4.6692    -3.8167 C.3     
  18 C18            1.5324    -2.4100    -2.7239 C.2     
  19 C19            2.1087    -1.6218    -3.8296 C.ar    
  20 C20            1.5187    -0.4146    -4.2127 C.ar    
  21 C21            2.0624     0.3184    -5.2471 C.ar    
  22 C22            3.1897    -0.1384    -5.9059 C.ar    
  23 C23            3.7814    -1.3351    -5.5323 C.ar    
  24 F24            4.8822    -1.7745    -6.1806 F       
  25 C25            3.2504    -2.0763    -4.4947 C.ar    
  26 S26            3.8763     0.8047    -7.2264 S.o2    
  27 N27            5.3764     1.3099    -6.7396 N.am    
  28 O28            4.0871    -0.1021    -8.2999 O.2     
  29 O29            3.0772     1.9740    -7.3422 O.2     
  30 H30            1.9516     2.0690    -1.1663 H       
  31 H31            1.3704     1.7069     0.4767 H       
  32 H32            3.1039     1.9897     0.1880 H       
  33 H33            3.2097    -0.0676    -1.1921 H       
  34 H34            2.6285    -0.4297     0.4509 H       
  35 H35           -1.0488    -2.9092     0.5821 H       
  36 H36            0.3232    -3.8696     1.1849 H       
  37 H37            0.4208    -2.0924     1.1663 H       
  38 H38           -0.5310    -5.9575    -3.0104 H       
  39 H39           -1.1469    -8.2457    -2.3518 H       
  40 H40            0.6238    -7.6370     1.4841 H       
  41 H41            1.2563    -5.3491     0.8402 H       
  42 H42            0.7987    -4.7540    -4.4836 H       
  43 H43            2.5109    -4.2807    -4.3712 H       
  44 H44            1.9017    -5.6516    -3.4132 H       
  45 H45            0.6383    -0.0561    -3.7001 H       
  46 H46            1.6064     1.2514    -5.5437 H       
  47 H47            3.7139    -3.0066    -4.2011 H       
  48 H48            5.7088     1.0665    -5.8614 H       
  49 H49            5.9226     1.8492    -7.3326 H       
@<TRIPOS>BOND
   1    1    2 1
   2    1   30 1
   3    1   31 1
   4    1   32 1
   5    2    3 1
   6    2   33 1
   7    2   34 1
   8    3    4 2
   9    3    5 1
  10    5   18 2
  11    5    6 1
  12    6    7 1
  13    6    8 2
  14    7   35 1
  15    7   36 1
  16    7   37 1
  17    8    9 1
  18    8   16 1
  19    9   15 ar
  20    9   10 ar
  21   10   11 ar
  22   10   38 1
  23   11   12 ar
  24   11   39 1
  25   12   13 1
  26   12   14 ar
  27   14   15 ar
  28   14   40 1
  29   15   41 1
  30   16   17 1
  31   16   18 1
  32   17   42 1
  33   17   43 1
  34   17   44 1
  35   18   19 1
  36   19   25 ar
  37   19   20 ar
  38   20   21 ar
  39   20   45 1
  40   21   22 ar
  41   21   46 1
  42   22   23 ar
  43   22   26 1
  44   23   24 1
  45   23   25 ar
  46   25   47 1
  47   26   27 am
  48   26   28 2
  49   26   29 2
  50   27   48 1
  51   27   49 1

#	End of record

