#	Name: ASD01910703
#	Creating user name:	WinNT
#	Creation time:	15. 06. 2019 19:56

#	Modifying user name:	WinNT
#	Modification time:	15. 06. 2019 19:56

#	Program:	/corina/corina34_cracker 3.40 0067  02.08.2006

@<TRIPOS>MOLECULE
ASD01910703
  56   59    0    0    0
SMALL
NO_CHARGES


@<TRIPOS>ATOM
   1 C1            12.4927    -1.8927     4.2629 C.ar    
   2 C2            13.1107    -2.0558     3.0304 C.ar    
   3 C3            12.3987    -1.7382     1.8876 C.ar    
   4 C4            11.0952    -1.2688     2.0113 C.ar    
   5 N5            10.5407    -1.1265     3.2054 N.ar    
   6 C6            11.1957    -1.4220     4.3120 C.ar    
   7 N7            10.3682    -0.9459     0.8713 N.3     
   8 C8             9.0224    -0.4726     1.2217 C.3     
   9 C9             8.3209     0.0417    -0.0399 C.3     
  10 N10            8.3620    -1.0157    -1.0613 N.am    
  11 C11            9.6595    -1.6362    -1.3688 C.3     
  12 C12           10.3083    -2.0845    -0.0549 C.3     
  13 C13            7.2404    -1.4055    -1.6989 C.2     
  14 C14            7.3212    -2.3800    -2.8082 C.ar    
  15 O15            6.1624    -0.9560    -1.3622 O.2     
  16 C16            6.3482    -3.3736    -2.9390 C.ar    
  17 C17            6.4209    -4.2849    -3.9744 C.ar    
  18 C18            7.4541    -4.2215    -4.8871 C.ar    
  19 C19            8.4357    -3.2319    -4.7688 C.ar    
  20 C20            8.3646    -2.3054    -3.7280 C.ar    
  21 C21            9.5075    -3.1667    -5.7162 C.1     
  22 C22           10.3862    -3.1133    -6.4929 C.1     
  23 C23           11.4580    -3.0481    -7.4404 C.2     
  24 C24            7.5252    -5.2205    -6.0132 C.3     
  25 C25           12.4870    -1.9684    -7.2713 C.3     
  26 C26           13.7415    -2.3053    -8.0799 C.3     
  27 C27           13.3172    -2.6700    -9.5078 C.3     
  28 C28           12.5522    -3.9943    -9.4641 C.3     
  29 C29           11.4873    -3.9427    -8.4076 C.2     
  30 H30           13.0196    -2.1358     5.1737 H       
  31 H31           14.1246    -2.4220     2.9653 H       
  32 H32           12.8490    -1.8527     0.9126 H       
  33 H33           10.7112    -1.2933     5.2686 H       
  34 H34            8.4474    -1.2946     1.6482 H       
  35 H35            9.0989     0.3346     1.9501 H       
  36 H36            7.2844     0.2870     0.1917 H       
  37 H37            8.8361     0.9282    -0.4097 H       
  38 H38            9.5081    -2.5002    -2.0159 H       
  39 H39           10.3034    -0.9110    -1.8664 H       
  40 H40           11.3174    -2.4462    -0.2524 H       
  41 H41            9.7154    -2.8840     0.3893 H       
  42 H42            5.5370    -3.4296    -2.2283 H       
  43 H43            5.6658    -5.0510    -4.0700 H       
  44 H44            9.1192    -1.5388    -3.6315 H       
  45 H45            6.9817    -4.8350    -6.8758 H       
  46 H46            8.5674    -5.3876    -6.2854 H       
  47 H47            7.0780    -6.1615    -5.6928 H       
  48 H48           12.0765    -1.0204    -7.6193 H       
  49 H49           12.7492    -1.8811    -6.2170 H       
  50 H50           14.4045    -1.4404    -8.1045 H       
  51 H51           14.2553    -3.1512    -7.6232 H       
  52 H52           12.6729    -1.8879    -9.9094 H       
  53 H53           14.2013    -2.7784   -10.1361 H       
  54 H54           12.0924    -4.1782   -10.4352 H       
  55 H55           13.2447    -4.8043    -9.2353 H       
  56 H56           10.6961    -4.6768    -8.4460 H       
@<TRIPOS>BOND
   1    1    2 ar
   2    1    6 ar
   3    1   30 1
   4    2    3 ar
   5    2   31 1
   6    3    4 ar
   7    3   32 1
   8    4    5 ar
   9    4    7 1
  10    5    6 ar
  11    6   33 1
  12    7    8 1
  13    7   12 1
  14    8    9 1
  15    8   34 1
  16    8   35 1
  17    9   10 1
  18    9   36 1
  19    9   37 1
  20   10   11 1
  21   10   13 am
  22   11   12 1
  23   11   38 1
  24   11   39 1
  25   12   40 1
  26   12   41 1
  27   13   14 1
  28   13   15 2
  29   14   16 ar
  30   14   20 ar
  31   16   17 ar
  32   16   42 1
  33   17   18 ar
  34   17   43 1
  35   18   19 ar
  36   18   24 1
  37   19   20 ar
  38   19   21 1
  39   20   44 1
  40   21   22 3
  41   22   23 1
  42   23   25 1
  43   23   29 2
  44   24   45 1
  45   24   46 1
  46   24   47 1
  47   25   26 1
  48   25   48 1
  49   25   49 1
  50   26   27 1
  51   26   50 1
  52   26   51 1
  53   27   28 1
  54   27   52 1
  55   27   53 1
  56   28   29 1
  57   28   54 1
  58   28   55 1
  59   29   56 1

#	End of record

