#	Name: ASD01151051
#	Creating user name:	WinNT
#	Creation time:	15. 06. 2019 19:05

#	Modifying user name:	WinNT
#	Modification time:	15. 06. 2019 19:05

#	Program:	/corina/corina34_cracker 3.40 0067  02.08.2006

@<TRIPOS>MOLECULE
ASD01151051
  55   57    0    0    0
SMALL
NO_CHARGES


@<TRIPOS>ATOM
   1 O1            -0.2838     0.5244     2.1191 O.2     
   2 C2            -0.0976     1.3894     1.2853 C.2     
   3 C3             1.2598     1.9312     1.0739 C.ar    
   4 C4             1.4770     2.9252     0.1166 C.ar    
   5 C5             2.7458     3.4290    -0.0791 C.ar    
   6 C6             3.8079     2.9548     0.6696 C.ar    
   7 C7             3.6056     1.9672     1.6241 C.ar    
   8 C8             2.3311     1.4558     1.8346 C.ar    
   9 F9             2.1305     0.4947     2.7626 F       
  10 N10            4.6847     1.4907     2.3781 N.am    
  11 C11            5.0031     2.0813     3.5469 C.2     
  12 O12            4.4042     3.0755     3.9086 O.2     
  13 C13            6.0806     1.5203     4.3891 C.ar    
  14 C14            7.2659     1.0715     3.8040 C.ar    
  15 C15            8.2677     0.5494     4.5958 C.ar    
  16 C16            8.0994     0.4698     5.9669 C.ar    
  17 C17            6.9271     0.9129     6.5531 C.ar    
  18 C18            5.9197     1.4424     5.7735 C.ar    
  19 C19            5.4677     0.3499     1.8966 C.3     
  20 N20           -1.1290     1.8499     0.5501 N.am    
  21 C21           -2.3979     1.2778     0.6897 C.ar    
  22 C22           -2.5374    -0.1038     0.7376 C.ar    
  23 Br23          -1.0118    -1.2143     0.6140 Br      
  24 C24           -3.7926    -0.6654     0.8760 C.ar    
  25 C25           -4.9083     0.1462     0.9664 C.ar    
  26 C26           -4.7724     1.5217     0.9191 C.ar    
  27 C27           -3.5205     2.0897     0.7866 C.ar    
  28 C28           -3.3740     3.5887     0.7352 C.3     
  29 F29           -4.6355     4.1844     0.8394 F       
  30 F30           -2.5678     4.0150     1.7960 F       
  31 F31           -2.7826     3.9581    -0.4777 F       
  32 C32           -6.2756    -0.4694     1.1164 C.3     
  33 C33           -6.2015    -1.9622     0.7890 C.3     
  34 F34           -5.4095    -2.6100     1.7431 F       
  35 F35           -7.4897    -2.5075     0.8043 F       
  36 F36           -5.6374    -2.1339    -0.4796 F       
  37 C37           -6.7623    -0.2864     2.5553 C.3     
  38 F38           -6.8301     1.0785     2.8546 F       
  39 F39           -8.0317    -0.8579     2.6945 F       
  40 F40           -5.8703    -0.9124     3.4325 F       
  41 F41           -7.1677     0.1566     0.2391 F       
  42 H42            0.6512     3.2989    -0.4705 H       
  43 H43            2.9109     4.1969    -0.8203 H       
  44 H44            4.7987     3.3543     0.5106 H       
  45 H45            7.3981     1.1324     2.7339 H       
  46 H46            9.1852     0.2018     4.1445 H       
  47 H47            8.8866     0.0595     6.5821 H       
  48 H48            6.8020     0.8476     7.6239 H       
  49 H49            5.0053     1.7883     6.2323 H       
  50 H50            6.3313     0.7116     1.3385 H       
  51 H51            5.8064    -0.2428     2.7463 H       
  52 H52            4.8478    -0.2678     1.2467 H       
  53 H53           -0.9915     2.5780    -0.0759 H       
  54 H54           -3.9021    -1.7391     0.9134 H       
  55 H55           -5.6461     2.1527     0.9896 H       
@<TRIPOS>BOND
   1    1    2 2
   2    2    3 1
   3    2   20 am
   4    3    4 ar
   5    3    8 ar
   6    4    5 ar
   7    4   42 1
   8    5    6 ar
   9    5   43 1
  10    6    7 ar
  11    6   44 1
  12    7    8 ar
  13    7   10 1
  14    8    9 1
  15   10   11 am
  16   10   19 1
  17   11   12 2
  18   11   13 1
  19   13   14 ar
  20   13   18 ar
  21   14   15 ar
  22   14   45 1
  23   15   16 ar
  24   15   46 1
  25   16   17 ar
  26   16   47 1
  27   17   18 ar
  28   17   48 1
  29   18   49 1
  30   19   50 1
  31   19   51 1
  32   19   52 1
  33   20   21 1
  34   20   53 1
  35   21   22 ar
  36   21   27 ar
  37   22   23 1
  38   22   24 ar
  39   24   25 ar
  40   24   54 1
  41   25   26 ar
  42   25   32 1
  43   26   27 ar
  44   26   55 1
  45   27   28 1
  46   28   29 1
  47   28   30 1
  48   28   31 1
  49   32   33 1
  50   32   37 1
  51   32   41 1
  52   33   34 1
  53   33   35 1
  54   33   36 1
  55   37   38 1
  56   37   39 1
  57   37   40 1

#	End of record

