#	Name: ASD03240612
#	Creating user name:	WinNT
#	Creation time:	15. 06. 2019 20:35

#	Modifying user name:	WinNT
#	Modification time:	15. 06. 2019 20:35

#	Program:	/corina/corina34_cracker 3.40 0067  02.08.2006

@<TRIPOS>MOLECULE
ASD03240612
  75   82    0    0    0
SMALL
NO_CHARGES


@<TRIPOS>ATOM
   1 C1             0.5787     1.2081     2.5460 C.ar    
   2 C2             0.6961    -0.1234     2.8878 C.ar    
   3 N3             1.8767    -0.7105     2.9384 N.ar    
   4 C4             2.9974    -0.0554     2.6668 C.ar    
   5 C5             2.9519     1.2884     2.3008 C.ar    
   6 C6             1.7236     1.9342     2.2451 C.ar    
   7 N7             4.2148    -0.7221     2.7727 N.pl3   
   8 C8             5.1683    -0.3160     3.7024 C.ar    
   9 C9             5.7381     0.9593     3.6258 C.ar    
  10 C10            5.3534     1.8813     2.5346 C.2     
  11 N11            4.1159     1.9969     1.9707 N.pl3   
  12 C12            5.5572    -1.1804     4.7171 C.ar    
  13 C13            6.4934    -0.7760     5.6495 C.ar    
  14 C14            7.0490     0.4900     5.5818 C.ar    
  15 C15            6.6774     1.3592     4.5760 C.ar    
  16 N16            6.1713     2.7319     1.9479 N.2     
  17 C17            5.5116     3.4126     0.9980 C.2     
  18 C18            4.2026     2.9641     0.9896 C.2     
  19 C19            3.1149     3.4276     0.1065 C.ar    
  20 C20            2.9265     4.7937    -0.1172 C.ar    
  21 C21            2.2723     2.5021    -0.5142 C.ar    
  22 C22            1.2578     2.9425    -1.3382 C.ar    
  23 C23            1.0738     4.2974    -1.5511 C.ar    
  24 C24            1.9078     5.2196    -0.9438 C.ar    
  25 C25            6.0826     4.4571     0.1162 C.ar    
  26 C26           -0.0367     4.7707    -2.4533 C.3     
  27 C27            7.0622     5.3215     0.6006 C.ar    
  28 C28            7.5926     6.2968    -0.2306 C.ar    
  29 C29            7.1466     6.4093    -1.5422 C.ar    
  30 C30            6.1744     5.5516    -2.0220 C.ar    
  31 C31            5.6451     4.5745    -1.2036 C.ar    
  32 N32           -1.0728     3.7512    -2.6657 N.3     
  33 C33           -0.5987     6.1491    -2.0674 C.3     
  34 C34           -0.6647     6.4563    -3.5728 C.3     
  35 C35            0.4618     5.4250    -3.7526 C.3     
  36 N36            8.5746     7.1661     0.2503 N.am    
  37 S37            9.9269     7.4705    -0.6558 S.o2    
  38 C38           10.7696     5.9375    -0.8662 C.ar    
  39 O39            9.4681     7.8564    -1.9442 O.2     
  40 O40           10.7713     8.2860     0.1449 O.2     
  41 C41           10.5573     5.1827    -2.0047 C.ar    
  42 C42           11.2185     3.9800    -2.1697 C.ar    
  43 C43           12.0923     3.5323    -1.1966 C.ar    
  44 C44           12.3053     4.2876    -0.0586 C.ar    
  45 C45           11.6474     5.4924     0.1045 C.ar    
  46 H46           -0.3925     1.6790     2.5086 H       
  47 H47           -0.1917    -0.6937     3.1178 H       
  48 H48            1.6602     2.9776     1.9734 H       
  49 H49            4.4006    -1.4774     2.1931 H       
  50 H50            5.1274    -2.1694     4.7778 H       
  51 H51            6.7933    -1.4521     6.4365 H       
  52 H52            7.7762     0.7986     6.3183 H       
  53 H53            7.1127     2.3463     4.5250 H       
  54 H54            3.5767     5.5145     0.3561 H       
  55 H55            2.4152     1.4443    -0.3495 H       
  56 H56            0.6056     2.2282    -1.8187 H       
  57 H57            1.7582     6.2755    -1.1141 H       
  58 H58            7.4070     5.2326     1.6202 H       
  59 H59            7.5606     7.1692    -2.1884 H       
  60 H60            5.8309     5.6438    -3.0417 H       
  61 H61            4.8860     3.9061    -1.5821 H       
  62 H62           -0.6631     2.8711    -2.9406 H       
  63 H63           -1.6464     3.6417    -1.8428 H       
  64 H64           -1.5765     6.1033    -1.5878 H       
  65 H65            0.1110     6.7738    -1.5251 H       
  66 H66           -1.6053     6.1610    -4.0378 H       
  67 H67           -0.3686     7.4747    -3.8240 H       
  68 H68            1.4615     5.8517    -3.6710 H       
  69 H69            0.3402     4.7947    -4.6335 H       
  70 H70            8.4644     7.5915     1.1151 H       
  71 H71            9.8747     5.5324    -2.7650 H       
  72 H72           11.0521     3.3899    -3.0588 H       
  73 H73           12.6083     2.5923    -1.3252 H       
  74 H74           12.9877     3.9377     0.7019 H       
  75 H75           11.8138     6.0825     0.9936 H       
@<TRIPOS>BOND
   1    1    2 ar
   2    1    6 ar
   3    1   46 1
   4    2    3 ar
   5    2   47 1
   6    3    4 ar
   7    4    5 ar
   8    4    7 1
   9    5    6 ar
  10    5   11 1
  11    6   48 1
  12    7    8 1
  13    7   49 1
  14    8    9 ar
  15    8   12 ar
  16    9   10 1
  17    9   15 ar
  18   10   11 1
  19   10   16 2
  20   11   18 1
  21   12   13 ar
  22   12   50 1
  23   13   14 ar
  24   13   51 1
  25   14   15 ar
  26   14   52 1
  27   15   53 1
  28   16   17 1
  29   17   18 2
  30   17   25 1
  31   18   19 1
  32   19   20 ar
  33   19   21 ar
  34   20   24 ar
  35   20   54 1
  36   21   22 ar
  37   21   55 1
  38   22   23 ar
  39   22   56 1
  40   23   24 ar
  41   23   26 1
  42   24   57 1
  43   25   27 ar
  44   25   31 ar
  45   26   33 1
  46   26   32 1
  47   26   35 1
  48   27   28 ar
  49   27   58 1
  50   28   29 ar
  51   28   36 1
  52   29   30 ar
  53   29   59 1
  54   30   31 ar
  55   30   60 1
  56   31   61 1
  57   32   62 1
  58   32   63 1
  59   33   34 1
  60   33   64 1
  61   33   65 1
  62   34   35 1
  63   34   66 1
  64   34   67 1
  65   35   68 1
  66   35   69 1
  67   36   37 am
  68   36   70 1
  69   37   38 1
  70   37   39 2
  71   37   40 2
  72   38   41 ar
  73   38   45 ar
  74   41   42 ar
  75   41   71 1
  76   42   43 ar
  77   42   72 1
  78   43   44 ar
  79   43   73 1
  80   44   45 ar
  81   44   74 1
  82   45   75 1

#	End of record

