#	Name: ASD07930358
#	Creating user name:	WinNT
#	Creation time:	15. 06. 2019 21:12

#	Modifying user name:	WinNT
#	Modification time:	15. 06. 2019 21:12

#	Program:	/corina/corina34_cracker 3.40 0067  02.08.2006

@<TRIPOS>MOLECULE
ASD07930358
  49   50    0    0    0
SMALL
NO_CHARGES


@<TRIPOS>ATOM
   1 N1            -0.0058     1.4467     0.2170 N.pl3   
   2 C2             0.0021    -0.0041     0.0020 C.3     
   3 C3             0.8305    -0.6733     1.1080 C.3     
   4 N4             2.1538     1.7084     1.1104 N.am    
   5 C5             1.1734     2.1401     0.2464 C.2     
   6 C6            -1.4106    -0.5271     0.0446 C.ar    
   7 C7            -2.1698    -0.3778     1.1927 C.ar    
   8 C8             2.8667     2.6381     1.9899 C.3     
   9 C9             0.6230    -0.3156    -1.3612 C.3     
  10 C10           -1.9505    -1.1506    -1.0642 C.ar    
  11 C11           -3.2466    -1.6304    -1.0263 C.ar    
  12 C12           -4.0046    -1.4871     0.1206 C.ar    
  13 C13           -3.4686    -0.8588     1.2302 C.ar    
  14 F14           -1.6445     0.2358     2.2756 F       
  15 Cl15          -4.4201    -0.6792     2.6710 Cl      
  16 N16           -3.8232    -2.2975    -2.2150 N.pl3   
  17 O17           -3.1559    -2.4236    -3.2261 O.2     
  18 O18           -4.9650    -2.7203    -2.1822 O.2     
  19 S19            2.4898     0.0763     1.1075 S.o2    
  20 O20            3.1484    -0.1555     2.3451 O.2     
  21 O21            3.1459    -0.1516    -0.1322 O.2     
  22 N22            1.3656     3.1935    -0.5326 N.2     
  23 O23            0.5936     4.6690    -2.1592 O.3     
  24 C24           -0.4819     5.0418    -3.0231 C.3     
  25 C25           -1.7189     5.3705    -2.1848 C.3     
  26 C26           -0.0776     6.2710    -3.8395 C.3     
  27 C27           -0.8007     3.8830    -3.9699 C.3     
  28 C28            0.3978     3.5954    -1.3653 C.2     
  29 O29           -0.6590     2.9926    -1.4065 O.2     
  30 H30           -0.8470     1.9152     0.3343 H       
  31 H31            0.3535    -0.5103     2.0745 H       
  32 H32            0.9099    -1.7426     0.9121 H       
  33 H33            2.4918     3.6491     1.8304 H       
  34 H34            2.7060     2.3508     3.0290 H       
  35 H35            3.9327     2.6062     1.7648 H       
  36 H36            1.6455     0.0610    -1.3893 H       
  37 H37            0.6284    -1.3939    -1.5201 H       
  38 H38            0.0374     0.1643    -2.1454 H       
  39 H39           -1.3595    -1.2630    -1.9612 H       
  40 H40           -5.0170    -1.8623     0.1490 H       
  41 H41           -1.4917     6.1961    -1.5103 H       
  42 H42           -2.5392     5.6549    -2.8438 H       
  43 H43           -2.0068     4.4948    -1.6032 H       
  44 H44            0.8036     6.0368    -4.4367 H       
  45 H45           -0.8980     6.5554    -4.4985 H       
  46 H46            0.1495     7.0965    -3.1650 H       
  47 H47           -1.0887     3.0073    -3.3883 H       
  48 H48           -1.6210     4.1674    -4.6289 H       
  49 H49            0.0806     3.6488    -4.5671 H       
@<TRIPOS>BOND
   1    1    2 1
   2    1    5 1
   3    1   30 1
   4    2    3 1
   5    2    6 1
   6    2    9 1
   7    3   19 1
   8    3   31 1
   9    3   32 1
  10    4    5 1
  11    4    8 1
  12    4   19 am
  13    5   22 2
  14    6   10 ar
  15    6    7 ar
  16    7   14 1
  17    7   13 ar
  18    8   33 1
  19    8   34 1
  20    8   35 1
  21    9   36 1
  22    9   37 1
  23    9   38 1
  24   10   11 ar
  25   10   39 1
  26   11   12 ar
  27   11   16 1
  28   12   13 ar
  29   12   40 1
  30   13   15 1
  31   16   17 2
  32   16   18 2
  33   19   20 2
  34   19   21 2
  35   22   28 1
  36   23   24 1
  37   23   28 1
  38   24   25 1
  39   24   26 1
  40   24   27 1
  41   25   41 1
  42   25   42 1
  43   25   43 1
  44   26   44 1
  45   26   45 1
  46   26   46 1
  47   27   47 1
  48   27   48 1
  49   27   49 1
  50   28   29 2

#	End of record

