#	Name: ASD01915251
#	Creating user name:	WinNT
#	Creation time:	15. 06. 2019 20:05

#	Modifying user name:	WinNT
#	Modification time:	15. 06. 2019 20:05

#	Program:	/corina/corina34_cracker 3.40 0067  02.08.2006

@<TRIPOS>MOLECULE
ASD01915251
  45   47    0    0    0
SMALL
NO_CHARGES


@<TRIPOS>ATOM
   1 C1             0.0813     1.3775     0.1528 C.ar    
   2 C2             0.0904    -0.0047     0.1311 C.ar    
   3 C3            -1.1011    -0.7044     0.1697 C.ar    
   4 C4            -2.3017    -0.0220     0.2306 C.ar    
   5 C5            -2.3108     1.3601     0.2532 C.ar    
   6 C6            -1.1191     2.0598     0.2190 C.ar    
   7 C7             1.3803     2.1403     0.1107 C.3     
   8 O8             1.7350     2.4022    -1.2486 O.3     
   9 C9             2.9582     3.1250    -1.4012 C.3     
  10 C10            3.2327     3.3442    -2.8667 C.2     
  11 N11            4.3400     4.0085    -3.2529 N.am    
  12 O12            2.4572     2.9230    -3.6986 O.2     
  13 C13            4.6270     4.2333    -4.6778 C.3     
  14 C14            4.9156     5.7237    -4.8869 C.3     
  15 N15            5.9778     6.1476    -3.9649 N.3     
  16 C16            5.5559     6.0064    -2.5649 C.3     
  17 C17            5.2904     4.5329    -2.2605 C.3     
  18 C18            6.3837     7.4586    -4.2365 C.ar    
  19 C19            6.1343     8.4680    -3.3169 C.ar    
  20 C20            6.5364     9.7621    -3.5868 C.ar    
  21 C21            7.1877    10.0529    -4.7732 C.ar    
  22 C22            7.4379     9.0479    -5.6927 C.ar    
  23 C23            7.0424     7.7513    -5.4250 C.ar    
  24 F24            7.5794    11.3191    -5.0348 F       
  25 Cl25           7.3560     6.4916    -6.5776 Cl      
  26 H26            1.0285    -0.5379     0.0835 H       
  27 H27           -1.0940    -1.7843     0.1520 H       
  28 H28           -3.2327    -0.5687     0.2600 H       
  29 H29           -3.2488     1.8933     0.3004 H       
  30 H30           -1.1261     3.1396     0.2367 H       
  31 H31            1.2652     3.0837     0.6444 H       
  32 H32            2.1645     1.5488     0.5833 H       
  33 H33            2.8758     4.0889    -0.8989 H       
  34 H34            3.7751     2.5540    -0.9600 H       
  35 H35            5.4971     3.6469    -4.9731 H       
  36 H36            3.7642     3.9400    -5.2758 H       
  37 H37            5.2378     5.8911    -5.9147 H       
  38 H38            4.0117     6.3003    -4.6902 H       
  39 H39            6.3425     6.3788    -1.9087 H       
  40 H40            4.6431     6.5791    -2.4006 H       
  41 H41            4.8684     4.4360    -1.2601 H       
  42 H42            6.2230     3.9722    -2.3234 H       
  43 H43            5.6260     8.2421    -2.3912 H       
  44 H44            6.3421    10.5476    -2.8715 H       
  45 H45            7.9461     9.2771    -6.6177 H       
@<TRIPOS>BOND
   1    1    2 ar
   2    1    7 1
   3    1    6 ar
   4    2    3 ar
   5    2   26 1
   6    3    4 ar
   7    3   27 1
   8    4    5 ar
   9    4   28 1
  10    5    6 ar
  11    5   29 1
  12    6   30 1
  13    7    8 1
  14    7   31 1
  15    7   32 1
  16    8    9 1
  17    9   10 1
  18    9   33 1
  19    9   34 1
  20   10   11 am
  21   10   12 2
  22   11   13 1
  23   11   17 1
  24   13   14 1
  25   13   35 1
  26   13   36 1
  27   14   15 1
  28   14   37 1
  29   14   38 1
  30   15   16 1
  31   15   18 1
  32   16   17 1
  33   16   39 1
  34   16   40 1
  35   17   41 1
  36   17   42 1
  37   18   19 ar
  38   18   23 ar
  39   19   20 ar
  40   19   43 1
  41   20   21 ar
  42   20   44 1
  43   21   22 ar
  44   21   24 1
  45   22   23 ar
  46   22   45 1
  47   23   25 1

#	End of record

