#	Name: ASD01510114
#	Creating user name:	WinNT
#	Creation time:	15. 06. 2019 19:21

#	Modifying user name:	WinNT
#	Modification time:	15. 06. 2019 19:21

#	Program:	/corina/corina34_cracker 3.40 0067  02.08.2006

@<TRIPOS>MOLECULE
ASD01510114
  24   25    0    0    0
SMALL
NO_CHARGES


@<TRIPOS>ATOM
   1 Cl1            0.0021    -0.0041     0.0020 Cl      
   2 C2            -0.0215     1.7317     0.0116 C.ar    
   3 N3             1.1220     2.3890     0.0042 N.ar    
   4 C4             1.1465     3.7139     0.0106 C.ar    
   5 C5            -0.0470     4.4101     0.0253 C.ar    
   6 C6            -1.2375     3.6845     0.0328 C.ar    
   7 N7            -1.1826     2.3578     0.0206 N.ar    
   8 O8            -2.4324     4.3234     0.0476 O.3     
   9 C9            -3.6049     3.5065     0.0544 C.3     
  10 C10           -4.8292     4.3850     0.0709 C.ar    
  11 C11           -5.4022     4.7944    -1.1187 C.ar    
  12 C12           -6.5252     5.6003    -1.1036 C.ar    
  13 C13           -7.0755     5.9965     0.1010 C.ar    
  14 C14           -6.5031     5.5864     1.2905 C.ar    
  15 C15           -5.3826     4.7769     1.2755 C.ar    
  16 H16            2.0880     4.2431     0.0048 H       
  17 H17           -0.0574     5.4901     0.0312 H       
  18 H18           -3.6178     2.8820    -0.8388 H       
  19 H19           -3.6008     2.8724     0.9410 H       
  20 H20           -4.9722     4.4849    -2.0598 H       
  21 H21           -6.9724     5.9207    -2.0330 H       
  22 H22           -7.9525     6.6267     0.1127 H       
  23 H23           -6.9328     5.8962     2.2316 H       
  24 H24           -4.9354     4.4565     2.2048 H       
@<TRIPOS>BOND
   1    1    2 1
   2    2    3 ar
   3    2    7 ar
   4    3    4 ar
   5    4    5 ar
   6    4   16 1
   7    5    6 ar
   8    5   17 1
   9    6    7 ar
  10    6    8 1
  11    8    9 1
  12    9   10 1
  13    9   18 1
  14    9   19 1
  15   10   11 ar
  16   10   15 ar
  17   11   12 ar
  18   11   20 1
  19   12   13 ar
  20   12   21 1
  21   13   14 ar
  22   13   22 1
  23   14   15 ar
  24   14   23 1
  25   15   24 1

#	End of record

