#	Name: ASD01916603
#	Creating user name:	WinNT
#	Creation time:	15. 06. 2019 20:07

#	Modifying user name:	WinNT
#	Modification time:	15. 06. 2019 20:07

#	Program:	/corina/corina34_cracker 3.40 0067  02.08.2006

@<TRIPOS>MOLECULE
ASD01916603
  35   37    0    0    0
SMALL
NO_CHARGES


@<TRIPOS>ATOM
   1 C1            -0.0170     1.4050     0.0098 C.2     
   2 C2             0.0021    -0.0041     0.0020 C.2     
   3 C3             1.1962    -0.6550    -0.0129 C.2     
   4 C4             2.3923     0.0843    -0.0203 C.2     
   5 C5             2.3577     1.4352    -0.0123 C.2     
   6 N6             1.1641     2.0995     0.0022 N.pl3   
   7 N7            -1.0099     2.2838     0.0293 N.2     
   8 C8            -0.5021     3.5183     0.0288 C.2     
   9 C9             0.8462     3.4301     0.0129 C.2     
  10 C10           -1.2995     4.7970     0.0473 C.3     
  11 C11           -2.2888     4.7981    -1.1198 C.3     
  12 C12           -3.0676     6.0471    -1.1018 C.1     
  13 C13           -3.6887     7.0432    -1.0873 C.1     
  14 C14           -4.4463     8.2582    -1.0697 C.ar    
  15 C15           -5.4169     8.4831    -2.0467 C.ar    
  16 C16           -6.1405     9.6619    -2.0161 C.ar    
  17 C17           -5.8711    10.5792    -1.0096 C.ar    
  18 C18           -4.8953    10.2922    -0.0730 C.ar    
  19 N19           -4.2236     9.1599    -0.1206 N.ar    
  20 C20           -4.6000    11.2860     1.0208 C.3     
  21 F21           -5.4142    11.0182     2.1264 F       
  22 F22            3.5806    -0.5583    -0.0351 F       
  23 H23           -0.9227    -0.5618     0.0082 H       
  24 H24            1.2256    -1.7346    -0.0186 H       
  25 H25            3.2816     1.9944    -0.0178 H       
  26 H26            1.5426     4.2556     0.0108 H       
  27 H27           -1.8464     4.8706     0.9873 H       
  28 H28           -0.6244     5.6475    -0.0478 H       
  29 H29           -1.7418     4.7245    -2.0598 H       
  30 H30           -2.9638     3.9476    -1.0248 H       
  31 H31           -5.6004     7.7477    -2.8160 H       
  32 H32           -6.8978     9.8642    -2.7590 H       
  33 H33           -6.4186    11.5088    -0.9587 H       
  34 H34           -3.5529    11.2048     1.3124 H       
  35 H35           -4.7991    12.2946     0.6587 H       
@<TRIPOS>BOND
   1    1    2 1
   2    1    6 1
   3    1    7 2
   4    2    3 2
   5    2   23 1
   6    3    4 1
   7    3   24 1
   8    4    5 2
   9    4   22 1
  10    5    6 1
  11    5   25 1
  12    6    9 1
  13    7    8 1
  14    8    9 2
  15    8   10 1
  16    9   26 1
  17   10   11 1
  18   10   27 1
  19   10   28 1
  20   11   12 1
  21   11   29 1
  22   11   30 1
  23   12   13 3
  24   13   14 1
  25   14   15 ar
  26   14   19 ar
  27   15   16 ar
  28   15   31 1
  29   16   17 ar
  30   16   32 1
  31   17   18 ar
  32   17   33 1
  33   18   19 ar
  34   18   20 1
  35   20   21 1
  36   20   34 1
  37   20   35 1

#	End of record

