#	Name: ASD01913600
#	Creating user name:	WinNT
#	Creation time:	15. 06. 2019 20:01

#	Modifying user name:	WinNT
#	Modification time:	15. 06. 2019 20:01

#	Program:	/corina/corina34_cracker 3.40 0067  02.08.2006

@<TRIPOS>MOLECULE
ASD01913600
  36   39    0    0    0
SMALL
NO_CHARGES


@<TRIPOS>ATOM
   1 C1            -2.9828     0.0702    -1.3176 C.ar    
   2 C2            -2.3933    -0.1638    -0.0794 C.ar    
   3 C3            -3.1041     0.1826     1.0651 C.ar    
   4 N4            -4.3067     0.7183     0.9364 N.ar    
   5 C5            -4.8313     0.9244    -0.2549 C.ar    
   6 N6            -4.1897     0.6099    -1.3622 N.ar    
   7 C7            -1.0661    -2.0680     0.1060 C.ar    
   8 C8             0.1632    -2.6890     0.3081 C.ar    
   9 C9             0.2167    -4.0680     0.4073 C.ar    
  10 N10           -0.8750    -4.7966     0.3130 N.ar    
  11 C11           -2.0688    -4.2466     0.1203 C.ar    
  12 C12           -2.2033    -2.8665     0.0109 C.ar    
  13 C13           -3.2675    -5.1109     0.0205 C.2     
  14 N14           -3.1441    -6.4489     0.1252 N.am    
  15 O15           -1.1550    -0.7170     0.0097 O.3     
  16 O16           -4.3621    -4.6137    -0.1558 O.2     
  17 C17           -4.2644    -7.2567     0.0319 C.2     
  18 S18           -4.2497    -9.0108     0.1499 S.3     
  19 C19           -5.9967    -9.0541    -0.0753 C.ar    
  20 C20           -6.4554    -7.7414    -0.2220 C.ar    
  21 N21           -5.4662    -6.8295    -0.1481 N.2     
  22 C22           -6.8898   -10.1220    -0.1208 C.ar    
  23 C23           -8.2341    -9.8930    -0.3110 C.ar    
  24 C24           -8.7025    -8.5954    -0.4580 C.ar    
  25 C25           -7.8375    -7.5317    -0.4163 C.ar    
  26 H26           -2.4609    -0.1809    -2.2291 H       
  27 H27           -2.6804     0.0162     2.0445 H       
  28 H28           -5.8154     1.3637    -0.3257 H       
  29 H29            1.0656    -2.1008     0.3863 H       
  30 H30            1.1685    -4.5536     0.5641 H       
  31 H31           -3.1746    -2.4210    -0.1455 H       
  32 H32           -2.2703    -6.8459     0.2659 H       
  33 H33           -6.5266   -11.1327    -0.0069 H       
  34 H34           -8.9238   -10.7234    -0.3462 H       
  35 H35           -9.7579    -8.4212    -0.6074 H       
  36 H36           -8.2166    -6.5270    -0.5319 H       
@<TRIPOS>BOND
   1    1    2 ar
   2    1    6 ar
   3    1   26 1
   4    2    3 ar
   5    2   15 1
   6    3    4 ar
   7    3   27 1
   8    4    5 ar
   9    5    6 ar
  10    5   28 1
  11    7    8 ar
  12    7   12 ar
  13    7   15 1
  14    8    9 ar
  15    8   29 1
  16    9   10 ar
  17    9   30 1
  18   10   11 ar
  19   11   12 ar
  20   11   13 1
  21   12   31 1
  22   13   14 am
  23   13   16 2
  24   14   17 1
  25   14   32 1
  26   17   18 1
  27   17   21 2
  28   18   19 1
  29   19   20 ar
  30   19   22 ar
  31   20   21 1
  32   20   25 ar
  33   22   23 ar
  34   22   33 1
  35   23   24 ar
  36   23   34 1
  37   24   25 ar
  38   24   35 1
  39   25   36 1

#	End of record

