#	Name: ASD01882935
#	Creating user name:	WinNT
#	Creation time:	15. 06. 2019 19:45

#	Modifying user name:	WinNT
#	Modification time:	15. 06. 2019 19:45

#	Program:	/corina/corina34_cracker 3.40 0067  02.08.2006

@<TRIPOS>MOLECULE
ASD01882935
  20   19    0    0    0
SMALL
NO_CHARGES


@<TRIPOS>ATOM
   1 C1            -0.0173     1.4278     0.0099 C.2     
   2 C2             0.0021    -0.0041     0.0020 C.1     
   3 C3             0.0180    -1.1779    -0.0044 C.1     
   4 C4             0.0380    -2.6498    -0.0125 C.3     
   5 O5             1.0268     2.0497     0.0033 O.2     
   6 O6            -1.1938     2.0858     0.0190 O.3     
   7 O7            -1.3027    -3.1444    -0.0024 O.3     
   8 C8            -1.3962    -4.5703    -0.0092 C.3     
   9 C9            -2.8689    -4.9849     0.0027 C.3     
  10 C10           -1.1375     3.5367     0.0267 C.3     
  11 H11            0.5481    -3.0013    -0.9093 H       
  12 H12            0.5651    -3.0109     0.8705 H       
  13 H13           -0.9157    -4.9617    -0.9059 H       
  14 H14           -0.8987    -4.9713     0.8740 H       
  15 H15           -3.3493    -4.5936     0.8994 H       
  16 H16           -3.3663    -4.5840    -0.8805 H       
  17 H17           -2.9402    -6.0726    -0.0025 H       
  18 H18           -0.6057     3.8750     0.9160 H       
  19 H19           -0.6141     3.8847    -0.8639 H       
  20 H20           -2.1502     3.9396     0.0337 H       
@<TRIPOS>BOND
   1    1    2 1
   2    1    5 2
   3    1    6 1
   4    2    3 3
   5    3    4 1
   6    4    7 1
   7    4   11 1
   8    4   12 1
   9    6   10 1
  10    7    8 1
  11    8    9 1
  12    8   13 1
  13    8   14 1
  14    9   15 1
  15    9   16 1
  16    9   17 1
  17   10   18 1
  18   10   19 1
  19   10   20 1

#	End of record

