#	Name: ASD01901308
#	Creating user name:	WinNT
#	Creation time:	15. 06. 2019 19:53

#	Modifying user name:	WinNT
#	Modification time:	15. 06. 2019 19:53

#	Program:	/corina/corina34_cracker 3.40 0067  02.08.2006

@<TRIPOS>MOLECULE
ASD01901308
  38   41    0    0    0
SMALL
NO_CHARGES


@<TRIPOS>ATOM
   1 C1            -0.0167     1.3777     0.0096 C.ar    
   2 C2             0.0021    -0.0041     0.0020 C.ar    
   3 C3             1.2101    -0.6818    -0.0132 C.ar    
   4 C4             2.4038     0.0212    -0.0208 C.ar    
   5 C5             2.3954     1.4014    -0.0133 C.ar    
   6 C6             1.1842     2.0889     0.0020 C.ar    
   7 F7            -1.1949     2.0387     0.0188 F       
   8 C8             1.1705     3.5729     0.0096 C.2     
   9 N9             0.8554     5.5905     1.1948 N.2     
  10 C10            0.8657     4.2799     1.1930 C.2     
  11 C11            1.4584     4.2744    -1.1276 C.2     
  12 C12            1.1314     6.2871     0.0821 C.2     
  13 N13            1.1823     7.5906    -0.1533 N.2     
  14 N14            1.4374     5.6373    -1.0858 N.pl3   
  15 C15            1.6742     6.5972    -2.0326 C.2     
  16 C16            1.5105     7.7953    -1.4324 C.2     
  17 C17            1.6707     9.1395    -2.0946 C.3     
  18 O18            2.0253     8.9553    -3.4666 O.3     
  19 C19            2.2086    10.0765    -4.2123 C.ar    
  20 C20            2.0560    11.3283    -3.6340 C.ar    
  21 C21            2.5543     9.9713    -5.5518 C.ar    
  22 C22            2.7400    11.1126    -6.3077 C.ar    
  23 C23            2.5822    12.3590    -5.7303 C.ar    
  24 C24            2.2429    12.4665    -4.3942 C.ar    
  25 F25            1.2243    -2.0327    -0.0201 F       
  26 H26           -0.9261    -0.5562     0.0083 H       
  27 H27            3.3430    -0.5118    -0.0322 H       
  28 H28            3.3270     1.9477    -0.0189 H       
  29 H29            0.6400     3.7389     2.1000 H       
  30 H30            1.6991     3.7575    -2.0448 H       
  31 H31            1.9420     6.4279    -3.0651 H       
  32 H32            0.7315     9.6892    -2.0327 H       
  33 H33            2.4552     9.7024    -1.5890 H       
  34 H34            1.7910    11.4128    -2.5904 H       
  35 H35            2.6783     8.9980    -6.0031 H       
  36 H36            3.0091    11.0312    -7.3505 H       
  37 H37            2.7283    13.2500    -6.3228 H       
  38 H38            2.1243    13.4412    -3.9444 H       
@<TRIPOS>BOND
   1    1    2 ar
   2    1    6 ar
   3    1    7 1
   4    2    3 ar
   5    2   26 1
   6    3    4 ar
   7    3   25 1
   8    4    5 ar
   9    4   27 1
  10    5    6 ar
  11    5   28 1
  12    6    8 1
  13    8   11 2
  14    8   10 1
  15    9   10 2
  16    9   12 1
  17   10   29 1
  18   11   14 1
  19   11   30 1
  20   12   14 1
  21   12   13 2
  22   13   16 1
  23   14   15 1
  24   15   16 2
  25   15   31 1
  26   16   17 1
  27   17   18 1
  28   17   32 1
  29   17   33 1
  30   18   19 1
  31   19   21 ar
  32   19   20 ar
  33   20   24 ar
  34   20   34 1
  35   21   22 ar
  36   21   35 1
  37   22   23 ar
  38   22   36 1
  39   23   24 ar
  40   23   37 1
  41   24   38 1

#	End of record

