#	Name: ASD01940151
#	Creating user name:	WinNT
#	Creation time:	15. 06. 2019 20:11

#	Modifying user name:	WinNT
#	Modification time:	15. 06. 2019 20:11

#	Program:	/corina/corina34_cracker 3.40 0067  02.08.2006

@<TRIPOS>MOLECULE
ASD01940151
  42   43    0    0    0
SMALL
NO_CHARGES


@<TRIPOS>ATOM
   1 C1             0.2251     1.4325    -0.1832 C.3     
   2 F2            -2.1578    -4.9534     0.2186 F       
   3 C3            -1.2424    -5.3011     1.1494 C.ar    
   4 C4             0.0901    -4.9498     0.9788 C.ar    
   5 C5             1.0308    -5.3103     1.9421 C.ar    
   6 C6             0.6319    -6.0180     3.0662 C.ar    
   7 C7            -0.6963    -6.3655     3.2306 C.ar    
   8 C8            -1.6334    -6.0040     2.2778 C.ar    
   9 N9             0.4882    -4.2349    -0.1593 N.pl3   
  10 N10            2.3769    -4.9589     1.7749 N.am    
  11 C11            0.4237    -2.8383    -0.1657 C.ar    
  12 C12            0.0340    -2.1545     0.9779 C.ar    
  13 C13           -0.0289    -0.7742     0.9685 C.ar    
  14 C14            0.2956    -0.0729    -0.1778 C.ar    
  15 C15            0.6845    -0.7495    -1.3200 C.ar    
  16 C16            0.7553    -2.1300    -1.3166 C.ar    
  17 F17            1.1356    -2.7908    -2.4319 F       
  18 F18           -2.9308    -6.3409     2.4463 F       
  19 S19            3.5706    -5.9857     2.2879 S.o2    
  20 O20            4.7755    -5.3584     1.8708 O.2     
  21 O21            3.2896    -6.1891     3.6659 O.2     
  22 C22            3.2894    -7.5119     1.3487 C.3     
  23 O23            4.2722    -8.4832     1.7128 O.3     
  24 C24            5.1587   -10.0993     3.2758 C.3     
  25 C25            4.0523    -9.0814     2.9919 C.3     
  26 H26            1.1879     1.8424     0.1217 H       
  27 H27           -0.0169     1.7813    -1.1871 H       
  28 H28           -0.5469     1.7625     0.5120 H       
  29 H29            1.3594    -6.2982     3.8136 H       
  30 H30           -1.0042    -6.9169     4.1067 H       
  31 H31            0.8085    -4.7092    -0.9425 H       
  32 H32            2.6095    -4.1142     1.3587 H       
  33 H33           -0.2202    -2.7010     1.8741 H       
  34 H34           -0.3320    -0.2423     1.8582 H       
  35 H35            0.9373    -0.1984    -2.2138 H       
  36 H36            2.2954    -7.8989     1.5735 H       
  37 H37            3.3646    -7.3012     0.2819 H       
  38 H38            5.1479   -10.8717     2.5068 H       
  39 H39            6.1254    -9.5959     3.2716 H       
  40 H40            4.9909   -10.5556     4.2514 H       
  41 H41            4.0631    -8.3090     3.7609 H       
  42 H42            3.0855    -9.5849     2.9961 H       
@<TRIPOS>BOND
   1    1   14 1
   2    1   26 1
   3    1   27 1
   4    1   28 1
   5    2    3 1
   6    3    4 ar
   7    3    8 ar
   8    4    5 ar
   9    4    9 1
  10    5    6 ar
  11    5   10 1
  12    6    7 ar
  13    6   29 1
  14    7    8 ar
  15    7   30 1
  16    8   18 1
  17    9   11 1
  18    9   31 1
  19   10   19 am
  20   10   32 1
  21   11   12 ar
  22   11   16 ar
  23   12   13 ar
  24   12   33 1
  25   13   14 ar
  26   13   34 1
  27   14   15 ar
  28   15   16 ar
  29   15   35 1
  30   16   17 1
  31   19   20 2
  32   19   21 2
  33   19   22 1
  34   22   23 1
  35   22   36 1
  36   22   37 1
  37   23   25 1
  38   24   25 1
  39   24   38 1
  40   24   39 1
  41   24   40 1
  42   25   41 1
  43   25   42 1

#	End of record

