#	Name: ASD02860006
#	Creating user name:	WinNT
#	Creation time:	15. 06. 2019 20:26

#	Modifying user name:	WinNT
#	Modification time:	15. 06. 2019 20:26

#	Program:	/corina/corina34_cracker 3.40 0067  02.08.2006

@<TRIPOS>MOLECULE
ASD02860006
  85   86    0    0    0
SMALL
NO_CHARGES


@<TRIPOS>ATOM
   1 N1            -1.2266     1.7041    -2.0329 N.3     
   2 C2            -1.5041     0.3106    -2.4056 C.3     
   3 C3            -1.4087     0.1624    -3.9023 C.2     
   4 N4            -1.2220    -1.0556    -4.4483 N.am    
   5 O5            -1.4999     1.1391    -4.6154 O.2     
   6 C6            -2.9124    -0.0700    -1.9442 C.3     
   7 C7            -2.9738    -0.0400    -0.4157 C.3     
   8 C8            -4.3820    -0.4206     0.0457 C.3     
   9 N9            -4.4408    -0.3918     1.5092 N.pl3   
  10 C10           -5.6139    -0.7007     2.1563 C.2     
  11 N11           -5.6691    -0.6737     3.5298 N.am    
  12 N12           -6.6737    -1.0191     1.4676 N.2     
  13 C13           -1.1293    -1.1997    -5.9033 C.3     
  14 C14           -0.9190    -2.6732    -6.2575 C.3     
  15 C15           -0.8221    -2.8236    -7.7770 C.3     
  16 N16           -0.6202    -4.2384    -8.1171 N.3     
  17 C17           -0.5224    -4.4214    -9.5714 C.3     
  18 C18           -0.3130    -5.9041    -9.8858 C.3     
  19 C19           -0.2111    -6.0947   -11.4004 C.3     
  20 N20           -0.0100    -7.5182   -11.7023 N.3     
  21 S21           -7.0462    -1.1563     4.3127 S.o2    
  22 O22           -7.3138    -2.4812     3.8740 O.2     
  23 O23           -6.8724    -0.8106     5.6800 O.2     
  24 C24           -8.3662    -0.1566     3.7105 C.ar    
  25 C25           -8.3677     1.2048     3.9510 C.ar    
  26 C26           -9.4029     1.9867     3.4803 C.ar    
  27 C27          -10.4464     1.4095     2.7640 C.ar    
  28 C28          -10.4400     0.0468     2.5213 C.ar    
  29 C29           -9.3970    -0.7321     2.9931 C.ar    
  30 O30          -11.4529     2.2098     2.3261 O.3     
  31 C31          -12.3072     1.7060     1.2984 C.3     
  32 C32          -12.7704     0.2997     1.6996 C.3     
  33 C33          -11.5451    -0.6169     1.7395 C.3     
  34 C34           -9.3920    -2.2163     2.7325 C.3     
  35 C35           -7.2398     1.8346     4.7271 C.3     
  36 C36           -9.4032     3.4706     3.7435 C.3     
  37 C37          -13.5217     2.6234     1.1422 C.3     
  38 C38          -11.5389     1.6380    -0.0230 C.3     
  39 H39           -0.2796     1.9599    -2.2691 H       
  40 H40           -1.8888     2.3322    -2.4630 H       
  41 H41           -0.7758    -0.3451    -1.9284 H       
  42 H42           -1.1491    -1.8368    -3.8780 H       
  43 H43           -3.6323     0.6403    -2.3508 H       
  44 H44           -3.1520    -1.0729    -2.2978 H       
  45 H45           -2.2539    -0.7503    -0.0092 H       
  46 H46           -2.7342     0.9628    -0.0621 H       
  47 H47           -5.1020     0.2897    -0.3609 H       
  48 H48           -4.6216    -1.4234    -0.3079 H       
  49 H49           -3.6521    -0.1548     2.0217 H       
  50 H50           -4.9014    -0.3719     4.0401 H       
  51 H51           -7.5228    -1.1514     1.9175 H       
  52 H52           -2.0510    -0.8434    -6.3632 H       
  53 H53           -0.2883    -0.6134    -6.2735 H       
  54 H54            0.0028    -3.0294    -5.7976 H       
  55 H55           -1.7600    -3.2595    -5.8872 H       
  56 H56           -1.7439    -2.4673    -8.2369 H       
  57 H57            0.0189    -2.2373    -8.1473 H       
  58 H58            0.1935    -4.6099    -7.6503 H       
  59 H59           -1.4421    -4.0762   -10.0437 H       
  60 H60            0.3207    -3.8462    -9.9541 H       
  61 H61            0.6067    -6.2493    -9.4135 H       
  62 H62           -1.1560    -6.4793    -9.5031 H       
  63 H63           -1.1308    -5.7495   -11.8728 H       
  64 H64            0.6320    -5.5195   -11.7832 H       
  65 H65            0.0605    -7.6704   -12.6973 H       
  66 H66            0.8016    -7.8784   -11.2231 H       
  67 H67          -13.2363     0.3334     2.6844 H       
  68 H68          -13.4854    -0.0745     0.9669 H       
  69 H69          -11.2041    -0.8111     0.7226 H       
  70 H70          -11.8125    -1.5591     2.2180 H       
  71 H71           -8.6495    -2.4487     1.9690 H       
  72 H72           -9.1450    -2.7460     3.6526 H       
  73 H73          -10.3778    -2.5280     2.3873 H       
  74 H74           -6.4522     2.1416     4.0389 H       
  75 H75           -7.6116     2.7061     5.2658 H       
  76 H76           -6.8397     1.1115     5.4379 H       
  77 H77           -8.8878     3.9837     2.9316 H       
  78 H78          -10.4309     3.8285     3.8052 H       
  79 H79           -8.8910     3.6728     4.6842 H       
  80 H80          -13.1877     3.6261     0.8754 H       
  81 H81          -14.1712     2.2360     0.3573 H       
  82 H82          -14.0714     2.6618     2.0827 H       
  83 H83          -10.6800     0.9763     0.0898 H       
  84 H84          -12.1938     1.2532    -0.8047 H       
  85 H85          -11.1953     2.6359    -0.2953 H       
@<TRIPOS>BOND
   1    1    2 1
   2    1   39 1
   3    1   40 1
   4    2    3 1
   5    2    6 1
   6    2   41 1
   7    3    4 am
   8    3    5 2
   9    4   13 1
  10    4   42 1
  11    6    7 1
  12    6   43 1
  13    6   44 1
  14    7    8 1
  15    7   45 1
  16    7   46 1
  17    8    9 1
  18    8   47 1
  19    8   48 1
  20    9   10 1
  21    9   49 1
  22   10   11 1
  23   10   12 2
  24   11   21 am
  25   11   50 1
  26   12   51 1
  27   13   14 1
  28   13   52 1
  29   13   53 1
  30   14   15 1
  31   14   54 1
  32   14   55 1
  33   15   16 1
  34   15   56 1
  35   15   57 1
  36   16   17 1
  37   16   58 1
  38   17   18 1
  39   17   59 1
  40   17   60 1
  41   18   19 1
  42   18   61 1
  43   18   62 1
  44   19   20 1
  45   19   63 1
  46   19   64 1
  47   20   65 1
  48   20   66 1
  49   21   22 2
  50   21   23 2
  51   21   24 1
  52   24   25 ar
  53   24   29 ar
  54   25   26 ar
  55   25   35 1
  56   26   27 ar
  57   26   36 1
  58   27   28 ar
  59   27   30 1
  60   28   29 ar
  61   28   33 1
  62   29   34 1
  63   30   31 1
  64   31   32 1
  65   31   37 1
  66   31   38 1
  67   32   33 1
  68   32   67 1
  69   32   68 1
  70   33   69 1
  71   33   70 1
  72   34   71 1
  73   34   72 1
  74   34   73 1
  75   35   74 1
  76   35   75 1
  77   35   76 1
  78   36   77 1
  79   36   78 1
  80   36   79 1
  81   37   80 1
  82   37   81 1
  83   37   82 1
  84   38   83 1
  85   38   84 1
  86   38   85 1

#	End of record

