#	Name: ASD01150835
#	Creating user name:	WinNT
#	Creation time:	15. 06. 2019 19:05

#	Modifying user name:	WinNT
#	Modification time:	15. 06. 2019 19:05

#	Program:	/corina/corina34_cracker 3.40 0067  02.08.2006

@<TRIPOS>MOLECULE
ASD01150835
  60   62    0    0    0
SMALL
NO_CHARGES


@<TRIPOS>ATOM
   1 C1            -0.0157     1.3100     0.0092 C.2     
   2 N2             0.0021    -0.0041     0.0020 N.2     
   3 C3             1.2639    -0.4448    -0.0124 C.2     
   4 C4             2.0991     0.6649    -0.0144 C.2     
   5 N5             1.2584     1.7785    -0.0004 N.pl3   
   6 C6             3.5097     0.6660    -0.0279 C.2     
   7 O7             4.1192    -0.3880    -0.0398 O.2     
   8 O8             4.1839     1.8359    -0.0275 O.3     
   9 C9             1.6535     3.1226     0.0023 C.ar    
  10 C10            1.3729     3.9269     1.0979 C.ar    
  11 C11            1.7653     5.2561     1.0970 C.ar    
  12 C12            2.4375     5.7796     0.0013 C.ar    
  13 C13            2.7155     4.9774    -1.0887 C.ar    
  14 C14            2.3313     3.6501    -1.0888 C.ar    
  15 O15            1.4917     6.0465     2.1681 O.3     
  16 C16            1.9256     7.4063     2.0986 C.3     
  17 O17           -1.1294     2.0760     0.0189 O.3     
  18 C18           -2.3855     1.3945     0.0220 C.3     
  19 N19            1.6675    -1.7745    -0.0227 N.am    
  20 C20            0.7465    -2.7585    -0.0189 C.2     
  21 C21            1.1754    -4.1714    -0.0299 C.ar    
  22 C22            0.2226    -5.1943    -0.0260 C.ar    
  23 C23            0.6308    -6.5129    -0.0362 C.ar    
  24 C24            1.9804    -6.8224    -0.0503 C.ar    
  25 C25            2.9289    -5.8126    -0.0538 C.ar    
  26 C26            2.5345    -4.4915    -0.0499 C.ar    
  27 O27           -0.4375    -2.4827    -0.0065 O.2     
  28 Cl28           2.4861    -8.4830    -0.0631 Cl      
  29 Cl29          -1.4697    -4.8074    -0.0078 Cl      
  30 C30            5.6110     1.7622    -0.0416 C.3     
  31 C31            6.1947     3.1764    -0.0390 C.3     
  32 C32            6.0950     1.0083     1.1987 C.3     
  33 C33            6.0711     1.0228    -1.2996 C.3     
  34 O34            7.6217     3.1027    -0.0530 O.3     
  35 C35            8.2696     4.3765    -0.0518 C.3     
  36 H36            0.8495     3.5179     1.9495 H       
  37 H37            2.7433     6.8155     0.0005 H       
  38 H38            3.2384     5.3872    -1.9403 H       
  39 H39            2.5544     3.0238    -1.9399 H       
  40 H40            1.4541     7.8950     1.2460 H       
  41 H41            1.6447     7.9246     3.0155 H       
  42 H42            3.0088     7.4365     1.9814 H       
  43 H43           -2.4644     0.7741    -0.8708 H       
  44 H44           -2.4552     0.7651     0.9091 H       
  45 H45           -3.1949     2.1245     0.0299 H       
  46 H46            2.6122    -1.9946    -0.0326 H       
  47 H47           -0.1037    -7.3047    -0.0329 H       
  48 H48            3.9799    -6.0609    -0.0644 H       
  49 H49            3.2753    -3.7057    -0.0578 H       
  50 H50            5.8499     3.7135    -0.9226 H       
  51 H51            5.8669     3.7031     0.8573 H       
  52 H52            5.6791     0.0008     1.1969 H       
  53 H53            7.1834     0.9521     1.1880 H       
  54 H54            5.7671     1.5351     2.0950 H       
  55 H55            5.7263     1.5599    -2.1832 H       
  56 H56            7.1596     0.9666    -1.3103 H       
  57 H57            5.6552     0.0153    -1.3015 H       
  58 H58            7.9678     4.9384    -0.9357 H       
  59 H59            7.9848     4.9281     0.8442 H       
  60 H60            9.3502     4.2345    -0.0629 H       
@<TRIPOS>BOND
   1    1    2 2
   2    1    5 1
   3    1   17 1
   4    2    3 1
   5    3    4 2
   6    3   19 1
   7    4    5 1
   8    4    6 1
   9    5    9 1
  10    6    7 2
  11    6    8 1
  12    8   30 1
  13    9   10 ar
  14    9   14 ar
  15   10   11 ar
  16   10   36 1
  17   11   12 ar
  18   11   15 1
  19   12   13 ar
  20   12   37 1
  21   13   14 ar
  22   13   38 1
  23   14   39 1
  24   15   16 1
  25   16   40 1
  26   16   41 1
  27   16   42 1
  28   17   18 1
  29   18   43 1
  30   18   44 1
  31   18   45 1
  32   19   20 am
  33   19   46 1
  34   20   21 1
  35   20   27 2
  36   21   22 ar
  37   21   26 ar
  38   22   23 ar
  39   22   29 1
  40   23   24 ar
  41   23   47 1
  42   24   25 ar
  43   24   28 1
  44   25   26 ar
  45   25   48 1
  46   26   49 1
  47   30   31 1
  48   30   32 1
  49   30   33 1
  50   31   34 1
  51   31   50 1
  52   31   51 1
  53   32   52 1
  54   32   53 1
  55   32   54 1
  56   33   55 1
  57   33   56 1
  58   33   57 1
  59   34   35 1
  60   35   58 1
  61   35   59 1
  62   35   60 1

#	End of record

