#	Name: ASD00431196
#	Creating user name:	WinNT
#	Creation time:	15. 06. 2019 18:35

#	Modifying user name:	WinNT
#	Modification time:	15. 06. 2019 18:35

#	Program:	/corina/corina34_cracker 3.40 0067  02.08.2006

@<TRIPOS>MOLECULE
ASD00431196
  41   43    0    0    0
SMALL
NO_CHARGES


@<TRIPOS>ATOM
   1 C1            -0.9155    -0.1431    -0.8642 C.2     
   2 N2             0.0138     0.0127     0.0995 N.am    
   3 O3            -0.7039    -0.9003    -1.8012 O.co2   
   4 O4            -1.9725     0.4690    -0.7991 O.co2   
   5 C5             1.1801    -0.7642     0.0804 C.ar    
   6 C6             1.7639    -1.1109    -1.1307 C.ar    
   7 C7             2.9129    -1.8764    -1.1489 C.ar    
   8 C8             3.4838    -2.2995     0.0427 C.ar    
   9 C9             2.9006    -1.9538     1.2533 C.ar    
  10 C10            1.7553    -1.1828     1.2728 C.ar    
  11 O11            4.6149    -3.0536     0.0242 O.3     
  12 S12            7.2989    -3.2189    -0.3888 S.3     
  13 C13            5.7899    -2.4310    -0.2319 C.2     
  14 N14            5.9312    -1.1511    -0.3933 N.2     
  15 C15            7.1448    -0.7082    -0.6361 C.2     
  16 C16            8.0888    -1.6718    -0.6833 C.2     
  17 O17           11.3128    -0.4941    -1.3257 O.3     
  18 N18           10.1248    -0.3189    -1.1551 N.2     
  19 C19            9.5287    -1.4658    -0.9360 C.2     
  20 N20           10.4826    -2.4257    -0.9845 N.2     
  21 C21           11.6033    -1.7956    -1.2314 C.2     
  22 C22           12.9663    -2.4207    -1.3813 C.3     
  23 C23           13.3577    -2.4422    -2.8602 C.3     
  24 N24           13.9484    -1.6374    -0.6276 N.am    
  25 C25           15.0804    -2.2208    -0.1864 C.2     
  26 O26           15.2861    -3.3943    -0.4134 O.2     
  27 C27           16.0907    -1.4149     0.5889 C.3     
  28 H28           -0.1246     0.6625     0.8063 H       
  29 H29            1.3191    -0.7821    -2.0583 H       
  30 H30            3.3671    -2.1460    -2.0909 H       
  31 H31            3.3450    -2.2840     2.1805 H       
  32 H32            1.3043    -0.9093     2.2152 H       
  33 H33            7.3676     0.3379    -0.7856 H       
  34 H34           12.9427    -3.4404    -0.9969 H       
  35 H35           12.6270    -3.0250    -3.4210 H       
  36 H36           13.3813    -1.4225    -3.2447 H       
  37 H37           14.3435    -2.8943    -2.9687 H       
  38 H38           13.7839    -0.6988    -0.4461 H       
  39 H39           15.7353    -0.3897     0.6926 H       
  40 H40           16.2250    -1.8547     1.5772 H       
  41 H41           17.0424    -1.4176     0.0577 H       
@<TRIPOS>BOND
   1    1    2 am
   2    1    3 ar
   3    1    4 ar
   4    2    5 1
   5    2   28 1
   6    5    6 ar
   7    5   10 ar
   8    6    7 ar
   9    6   29 1
  10    7    8 ar
  11    7   30 1
  12    8    9 ar
  13    8   11 1
  14    9   10 ar
  15    9   31 1
  16   10   32 1
  17   11   13 1
  18   12   13 1
  19   12   16 1
  20   13   14 2
  21   14   15 1
  22   15   16 2
  23   15   33 1
  24   16   19 1
  25   17   18 1
  26   17   21 1
  27   18   19 2
  28   19   20 1
  29   20   21 2
  30   21   22 1
  31   22   23 1
  32   22   24 1
  33   22   34 1
  34   23   35 1
  35   23   36 1
  36   23   37 1
  37   24   25 am
  38   24   38 1
  39   25   26 2
  40   25   27 1
  41   27   39 1
  42   27   40 1
  43   27   41 1

#	End of record

