#	Name: ASD01813528
#	Creating user name:	WinNT
#	Creation time:	15. 06. 2019 19:30

#	Modifying user name:	WinNT
#	Modification time:	15. 06. 2019 19:30

#	Program:	/corina/corina34_cracker 3.40 0067  02.08.2006

@<TRIPOS>MOLECULE
ASD01813528
  55   59    0    0    0
SMALL
NO_CHARGES


@<TRIPOS>ATOM
   1 C1            -0.0168     1.3825    -0.0466 C.ar    
   2 C2             0.0020    -0.0038    -0.0536 C.ar    
   3 C3             1.1975    -0.6932    -0.0496 C.ar    
   4 C4             2.4040     0.0044    -0.0390 C.ar    
   5 C5             2.3834     1.4096    -0.0323 C.ar    
   6 C6             1.1657     2.0946    -0.0360 C.ar    
   7 N7             3.6050    -0.6734    -0.0339 N.pl3   
   8 C8             4.7898    -0.0496    -0.0227 C.2     
   9 C9             4.8962     1.3266    -0.0150 C.2     
  10 C10            3.6660     2.1351    -0.0211 C.2     
  11 O11            3.7066     3.3531    -0.0152 O.2     
  12 C12            6.2155     1.9737    -0.0018 C.2     
  13 O13            6.3065     3.3187     0.0057 O.3     
  14 O14            7.2249     1.2962     0.0024 O.2     
  15 C15            3.5837    -2.1382    -0.0406 C.3     
  16 C16            3.4403    -2.6321    -1.4571 C.ar    
  17 N17            2.2383    -2.7342    -1.9904 N.ar    
  18 C18            2.0590    -3.1603    -3.2241 C.ar    
  19 C19            3.1476    -3.5218    -4.0147 C.ar    
  20 C20            4.4347    -3.4247    -3.4782 C.ar    
  21 C21            4.5716    -2.9658    -2.1795 C.ar    
  22 C22            2.9441    -4.0024    -5.4035 C.ar    
  23 F23            1.1984    -2.0441    -0.0557 F       
  24 F24            1.1457     3.4455    -0.0301 F       
  25 C25            4.0328    -4.3630    -6.1917 C.ar    
  26 N26            3.8573    -4.7906    -7.4262 N.ar    
  27 C27            2.6510    -4.8946    -7.9628 C.ar    
  28 C28            1.5141    -4.5522    -7.2355 C.ar    
  29 C29            1.6541    -4.1049    -5.9369 C.ar    
  30 N30            2.5183    -5.3507    -9.2683 N.3     
  31 C31            3.8309    -5.6555    -9.8559 C.3     
  32 C32            3.6349    -6.2097   -11.2695 C.3     
  33 O33            2.8992    -5.2633   -12.0495 O.3     
  34 C34            1.6153    -4.9439   -11.5064 C.3     
  35 C35            1.7908    -4.3768   -10.0952 C.3     
  36 H36           -0.9606     1.9075    -0.0539 H       
  37 H37           -0.9294    -0.5504    -0.0619 H       
  38 H38            5.6921    -0.6430    -0.0194 H       
  39 H39            7.1957     3.6986     0.0143 H       
  40 H40            4.5134    -2.5171     0.3839 H       
  41 H41            2.7418    -2.4920     0.5545 H       
  42 H42            1.0590    -3.2304    -3.6260 H       
  43 H43            5.3006    -3.6967    -4.0635 H       
  44 H44            5.5506    -2.8774    -1.7322 H       
  45 H45            5.0320    -4.2914    -5.7880 H       
  46 H46            0.5340    -4.6392    -7.6807 H       
  47 H47            0.7896    -3.8325    -5.3496 H       
  48 H48            4.4295    -4.7456    -9.9015 H       
  49 H49            4.3413    -6.3973    -9.2417 H       
  50 H50            4.6073    -6.3835   -11.7304 H       
  51 H51            3.0823    -7.1479   -11.2193 H       
  52 H52            1.1270    -4.2022   -12.1385 H       
  53 H53            1.0040    -5.8453   -11.4630 H       
  54 H54            0.8120    -4.1852    -9.6556 H       
  55 H55            2.3567    -3.4465   -10.1445 H       
@<TRIPOS>BOND
   1    1    2 ar
   2    1    6 ar
   3    1   36 1
   4    2    3 ar
   5    2   37 1
   6    3    4 ar
   7    3   23 1
   8    4    5 ar
   9    4    7 1
  10    5    6 ar
  11    5   10 1
  12    6   24 1
  13    7    8 1
  14    7   15 1
  15    8    9 2
  16    8   38 1
  17    9   10 1
  18    9   12 1
  19   10   11 2
  20   12   13 1
  21   12   14 2
  22   13   39 1
  23   15   16 1
  24   15   40 1
  25   15   41 1
  26   16   17 ar
  27   16   21 ar
  28   17   18 ar
  29   18   19 ar
  30   18   42 1
  31   19   20 ar
  32   19   22 1
  33   20   21 ar
  34   20   43 1
  35   21   44 1
  36   22   25 ar
  37   22   29 ar
  38   25   26 ar
  39   25   45 1
  40   26   27 ar
  41   27   28 ar
  42   27   30 1
  43   28   29 ar
  44   28   46 1
  45   29   47 1
  46   30   31 1
  47   30   35 1
  48   31   32 1
  49   31   48 1
  50   31   49 1
  51   32   33 1
  52   32   50 1
  53   32   51 1
  54   33   34 1
  55   34   35 1
  56   34   52 1
  57   34   53 1
  58   35   54 1
  59   35   55 1

#	End of record

