#	Name: ASD01900970
#	Creating user name:	WinNT
#	Creation time:	15. 06. 2019 19:52

#	Modifying user name:	WinNT
#	Modification time:	15. 06. 2019 19:52

#	Program:	/corina/corina34_cracker 3.40 0067  02.08.2006

@<TRIPOS>MOLECULE
ASD01900970
  63   67    0    0    0
SMALL
NO_CHARGES


@<TRIPOS>ATOM
   1 C1             3.7402     0.5463     0.8720 C.ar    
   2 C2             4.3910    -0.6658     0.8141 C.ar    
   3 C3             5.7413    -0.7264     0.4492 C.ar    
   4 C4             6.4401     0.4449     0.1490 C.ar    
   5 C5             5.7886     1.6636     0.2123 C.ar    
   6 C6             4.4286     1.7180     0.5647 C.ar    
   7 N7             6.4480     2.8584    -0.0592 N.pl3   
   8 C8             5.6765     3.9870    -0.5920 C.3     
   9 N9             4.4081     4.1177     0.1260 N.am    
  10 C10            3.7653     3.0361     0.6092 C.2     
  11 C11            3.8527     5.3891     0.3152 C.ar    
  12 C12            4.3604     6.2299     1.2969 C.ar    
  13 C13            3.8121     7.4835     1.4829 C.ar    
  14 C14            2.7545     7.9031     0.6893 C.ar    
  15 C15            2.2468     7.0637    -0.2916 C.ar    
  16 C16            2.7977     5.8120    -0.4826 C.ar    
  17 O17            2.6483     3.1448     1.0770 O.2     
  18 O18            2.2148     9.1374     0.8733 O.3     
  19 C19            6.4880     5.2757    -0.4300 C.3     
  20 C20            5.3991     3.7532    -2.0797 C.3     
  21 C21            4.6537     4.9623    -2.6496 C.3     
  22 N22            5.4679     6.1709    -2.4694 N.3     
  23 C23            5.7111     6.4412    -1.0467 C.3     
  24 C24            4.8452     7.3280    -3.1262 C.3     
  25 C25            5.6523     8.5664    -2.8331 C.ar    
  26 C26            6.6965     8.9233    -3.6661 C.ar    
  27 C27            7.4382    10.0586    -3.3994 C.ar    
  28 C28            7.1359    10.8398    -2.2975 C.ar    
  29 C29            6.0887    10.4819    -1.4622 C.ar    
  30 C30            5.3443     9.3474    -1.7352 C.ar    
  31 C31            1.1365     9.5090     0.0124 C.3     
  32 F32            5.7918    11.2428    -0.3861 F       
  33 C33            6.4272    -2.0296     0.3821 C.2     
  34 F34            7.8607    11.9495    -2.0359 F       
  35 F35            0.0611     8.6359     0.2086 F       
  36 F36            0.7350    10.8167     0.3056 F       
  37 F37            1.5577     9.4381    -1.3198 F       
  38 C38            5.6750    -3.2945     0.7062 C.3     
  39 O39            7.5964    -2.0836     0.0663 O.2     
  40 H40            2.6975     0.5882     1.1505 H       
  41 H41            3.8574    -1.5742     1.0517 H       
  42 H42            7.4823     0.3996    -0.1304 H       
  43 H43            7.4009     2.9437     0.1011 H       
  44 H44            5.1836     5.9032     1.9150 H       
  45 H45            4.2066     8.1373     2.2466 H       
  46 H46            1.4231     7.3909    -0.9088 H       
  47 H47            2.4053     5.1604    -1.2493 H       
  48 H48            6.6555     5.4698     0.6294 H       
  49 H49            7.4468     5.1684    -0.9373 H       
  50 H50            6.3426     3.6241    -2.6100 H       
  51 H51            4.7877     2.8589    -2.1998 H       
  52 H52            4.4663     4.8057    -3.7119 H       
  53 H53            3.7044     5.0828    -2.1275 H       
  54 H54            4.7578     6.5556    -0.5306 H       
  55 H55            6.2912     7.3584    -0.9453 H       
  56 H56            4.8137     7.1611    -4.2028 H       
  57 H57            3.8309     7.4576    -2.7487 H       
  58 H58            6.9331     8.3140    -4.5258 H       
  59 H59            8.2539    10.3361    -4.0506 H       
  60 H60            4.5254     9.0702    -1.0880 H       
  61 H61            4.8349    -3.4035     0.0202 H       
  62 H62            6.3419    -4.1505     0.6027 H       
  63 H63            5.3041    -3.2446     1.7299 H       
@<TRIPOS>BOND
   1    1    2 ar
   2    1    6 ar
   3    1   40 1
   4    2    3 ar
   5    2   41 1
   6    3    4 ar
   7    3   33 1
   8    4    5 ar
   9    4   42 1
  10    5    7 1
  11    5    6 ar
  12    6   10 1
  13    7    8 1
  14    7   43 1
  15    8    9 1
  16    8   20 1
  17    8   19 1
  18    9   10 am
  19    9   11 1
  20   10   17 2
  21   11   12 ar
  22   11   16 ar
  23   12   13 ar
  24   12   44 1
  25   13   14 ar
  26   13   45 1
  27   14   15 ar
  28   14   18 1
  29   15   16 ar
  30   15   46 1
  31   16   47 1
  32   18   31 1
  33   19   23 1
  34   19   48 1
  35   19   49 1
  36   20   21 1
  37   20   50 1
  38   20   51 1
  39   21   22 1
  40   21   52 1
  41   21   53 1
  42   22   23 1
  43   22   24 1
  44   23   54 1
  45   23   55 1
  46   24   25 1
  47   24   56 1
  48   24   57 1
  49   25   26 ar
  50   25   30 ar
  51   26   27 ar
  52   26   58 1
  53   27   28 ar
  54   27   59 1
  55   28   29 ar
  56   28   34 1
  57   29   30 ar
  58   29   32 1
  59   30   60 1
  60   31   35 1
  61   31   36 1
  62   31   37 1
  63   33   38 1
  64   33   39 2
  65   38   61 1
  66   38   62 1
  67   38   63 1

#	End of record

