#	Name: ASD03430705
#	Creating user name:	WinNT
#	Creation time:	15. 06. 2019 20:41

#	Modifying user name:	WinNT
#	Modification time:	15. 06. 2019 20:41

#	Program:	/corina/corina34_cracker 3.40 0067  02.08.2006

@<TRIPOS>MOLECULE
ASD03430705
  60   66    0    0    0
SMALL
NO_CHARGES


@<TRIPOS>ATOM
   1 C1             4.3823    -1.7341    -0.9191 C.ar    
   2 C2             3.3494    -2.6375    -0.8155 C.ar    
   3 C3             3.5420    -3.9639    -1.1679 C.ar    
   4 C4             4.7841    -4.3791    -1.6197 C.ar    
   5 C5             5.8234    -3.4647    -1.7286 C.ar    
   6 C6             5.6303    -2.1323    -1.3834 C.ar    
   7 C7             2.3900    -4.9246    -1.0596 C.3     
   8 C8             2.8924    -6.3669    -1.0805 C.3     
   9 C9             0.2946    -4.3242    -0.2698 C.ar    
  10 C10            1.5812    -4.6591     0.1710 C.ar    
  11 C11            1.4200    -4.6995    -2.2006 C.2     
  12 N12            0.2360    -4.3570    -1.6517 N.am    
  13 O13            1.6620    -4.8064    -3.3843 O.2     
  14 C14            1.9116    -4.7016     1.5080 C.ar    
  15 C15            0.9040    -4.3959     2.4172 C.ar    
  16 C16           -0.3677    -4.0659     1.9961 C.ar    
  17 C17           -0.7073    -4.0198     0.6527 C.ar    
  18 C18           -0.9697    -4.0559    -2.4275 C.3     
  19 C19           -0.7221    -2.8461    -3.2913 C.ar    
  20 C20           -1.4937    -2.6317    -4.4180 C.ar    
  21 C21            4.4782    -0.2543    -0.6012 C.3     
  22 C22            6.0086    -0.0287    -0.5836 C.3     
  23 O23            6.4956    -1.0822    -1.4322 O.3     
  24 C24           -1.3125    -5.2352    -3.3010 C.ar    
  25 C25           -1.2666    -1.5220    -5.2103 C.ar    
  26 C26           -0.2681    -0.6264    -4.8757 C.ar    
  27 C27            0.5029    -0.8404    -3.7485 C.ar    
  28 C28            0.2729    -1.9478    -2.9538 C.ar    
  29 C29           -2.3470    -6.0806    -2.9461 C.ar    
  30 C30           -2.6614    -7.1623    -3.7473 C.ar    
  31 C31           -1.9416    -7.3983    -4.9036 C.ar    
  32 C32           -0.9077    -6.5524    -5.2590 C.ar    
  33 C33           -0.5961    -5.4682    -4.4600 C.ar    
  34 O34            5.0205    -5.6736    -1.9591 O.3     
  35 C35            3.8967    -6.5114    -2.2317 C.3     
  36 H36            2.3841    -2.3114    -0.4575 H       
  37 H37            6.7895    -3.7914    -2.0840 H       
  38 H38            3.3820    -6.5990    -0.1347 H       
  39 H39            2.0540    -7.0456    -1.2371 H       
  40 H40            2.9077    -4.9608     1.8353 H       
  41 H41            1.1217    -4.4177     3.4748 H       
  42 H42           -1.1211    -3.8364     2.7351 H       
  43 H43           -1.7056    -3.7591     0.3334 H       
  44 H44           -1.7978    -3.8540    -1.7482 H       
  45 H45           -2.2738    -3.3314    -4.6794 H       
  46 H46            4.0055     0.3429    -1.3809 H       
  47 H47            4.0412    -0.0362     0.3733 H       
  48 H48            6.2597     0.9479    -0.9977 H       
  49 H49            6.4028    -0.1336     0.4271 H       
  50 H50           -1.8690    -1.3548    -6.0910 H       
  51 H51           -0.0902     0.2402    -5.4952 H       
  52 H52            1.2832    -0.1409    -3.4873 H       
  53 H53            0.8753    -2.1150    -2.0731 H       
  54 H54           -2.9093    -5.8962    -2.0427 H       
  55 H55           -3.4692    -7.8232    -3.4697 H       
  56 H56           -2.1868    -8.2438    -5.5292 H       
  57 H57           -0.3451    -6.7370    -6.1622 H       
  58 H58            0.2117    -4.8072    -4.7377 H       
  59 H59            4.2225    -7.5489    -2.3055 H       
  60 H60            3.4287    -6.2038    -3.1669 H       
@<TRIPOS>BOND
   1    1    2 ar
   2    1    6 ar
   3    1   21 1
   4    2    3 ar
   5    2   36 1
   6    3    4 ar
   7    3    7 1
   8    4    5 ar
   9    4   34 1
  10    5    6 ar
  11    5   37 1
  12    6   23 1
  13    7    8 1
  14    7   10 1
  15    7   11 1
  16    8   35 1
  17    8   38 1
  18    8   39 1
  19    9   10 ar
  20    9   12 1
  21    9   17 ar
  22   10   14 ar
  23   11   12 am
  24   11   13 2
  25   12   18 1
  26   14   15 ar
  27   14   40 1
  28   15   16 ar
  29   15   41 1
  30   16   17 ar
  31   16   42 1
  32   17   43 1
  33   18   19 1
  34   18   24 1
  35   18   44 1
  36   19   20 ar
  37   19   28 ar
  38   20   25 ar
  39   20   45 1
  40   21   22 1
  41   21   46 1
  42   21   47 1
  43   22   23 1
  44   22   48 1
  45   22   49 1
  46   24   29 ar
  47   24   33 ar
  48   25   26 ar
  49   25   50 1
  50   26   27 ar
  51   26   51 1
  52   27   28 ar
  53   27   52 1
  54   28   53 1
  55   29   30 ar
  56   29   54 1
  57   30   31 ar
  58   30   55 1
  59   31   32 ar
  60   31   56 1
  61   32   33 ar
  62   32   57 1
  63   33   58 1
  64   34   35 1
  65   35   59 1
  66   35   60 1

#	End of record

