#	Name: ASD01150596
#	Creating user name:	WinNT
#	Creation time:	15. 06. 2019 19:04

#	Modifying user name:	WinNT
#	Modification time:	15. 06. 2019 19:04

#	Program:	/corina/corina34_cracker 3.40 0067  02.08.2006

@<TRIPOS>MOLECULE
ASD01150596
  42   44    0    0    0
SMALL
NO_CHARGES


@<TRIPOS>ATOM
   1 C1            -0.0166     1.3764     0.0096 C.ar    
   2 C2             0.0021    -0.0041     0.0020 C.ar    
   3 C3             2.4018     0.0243    -0.0198 C.ar    
   4 C4             2.3877     1.4053    -0.0132 C.ar    
   5 C5             1.1774     2.0863     0.0020 C.ar    
   6 N6             1.1608     3.4860     0.0092 N.am    
   7 C7             0.4913     4.1359     0.9774 C.2     
   8 N8             0.4548     5.4809     1.0151 N.am    
   9 C9             1.0961     6.2011     0.0714 C.2     
  10 C10            1.8302     5.4964    -0.9903 C.2     
  11 N11            1.8463     4.1894    -0.9884 N.2     
  12 O12            1.0670     7.4174     0.0982 O.2     
  13 C13           -0.2823     6.1635     2.0814 C.3     
  14 O14           -0.0913     3.4978     1.8332 O.2     
  15 C15            0.6365     6.4069     3.2509 C.ar    
  16 O16            2.4859     6.1930    -1.9548 O.3     
  17 C17            3.1746     5.4326    -2.9495 C.3     
  18 C18            1.2103    -0.6813    -0.0127 C.ar    
  19 C19            1.3676     7.5779     3.3231 C.ar    
  20 C20            2.2105     7.8016     4.3955 C.ar    
  21 C21            2.3223     6.8534     5.3967 C.ar    
  22 C22            1.5903     5.6816     5.3238 C.ar    
  23 C23            0.7435     5.4615     4.2538 C.ar    
  24 F24            1.2264    -2.0322    -0.0197 F       
  25 C25            3.6847     2.1727    -0.0205 C.3     
  26 C26            4.0570     2.5201     1.3607 C.1     
  27 N27            4.3443     2.7882     2.4265 N.1     
  28 Cl28           3.3811     7.1334     6.7436 Cl      
  29 H29           -0.9590     1.9041     0.0169 H       
  30 H30           -0.9260    -0.5563     0.0079 H       
  31 H31            3.3427    -0.5057    -0.0320 H       
  32 H32           -0.6584     7.1169     1.7103 H       
  33 H33           -1.1191     5.5420     2.4000 H       
  34 H34            3.9314     4.8103    -2.4719 H       
  35 H35            2.4636     4.7981    -3.4787 H       
  36 H36            3.6541     6.1093    -3.6568 H       
  37 H37            1.2805     8.3178     2.5413 H       
  38 H38            2.7819     8.7163     4.4516 H       
  39 H39            1.6771     4.9410     6.1051 H       
  40 H40            0.1720     4.5468     4.1968 H       
  41 H41            4.4680     1.5582    -0.4643 H       
  42 H42            3.5638     3.0850    -0.6046 H       
@<TRIPOS>BOND
   1    1    2 ar
   2    1    5 ar
   3    1   29 1
   4    2   18 ar
   5    2   30 1
   6    3    4 ar
   7    3   18 ar
   8    3   31 1
   9    4    5 ar
  10    4   25 1
  11    5    6 1
  12    6    7 am
  13    6   11 1
  14    7    8 am
  15    7   14 2
  16    8    9 am
  17    8   13 1
  18    9   10 1
  19    9   12 2
  20   10   11 2
  21   10   16 1
  22   13   15 1
  23   13   32 1
  24   13   33 1
  25   15   19 ar
  26   15   23 ar
  27   16   17 1
  28   17   34 1
  29   17   35 1
  30   17   36 1
  31   18   24 1
  32   19   20 ar
  33   19   37 1
  34   20   21 ar
  35   20   38 1
  36   21   22 ar
  37   21   28 1
  38   22   23 ar
  39   22   39 1
  40   23   40 1
  41   25   26 1
  42   25   41 1
  43   25   42 1
  44   26   27 3

#	End of record

