#	Name: ASD06390028
#	Creating user name:	WinNT
#	Creation time:	15. 06. 2019 21:06

#	Modifying user name:	WinNT
#	Modification time:	15. 06. 2019 21:06

#	Program:	/corina/corina34_cracker 3.40 0067  02.08.2006

@<TRIPOS>MOLECULE
ASD06390028
  47   48    0    0    0
SMALL
NO_CHARGES


@<TRIPOS>ATOM
   1 Cl1            0.0021    -0.0041     0.0020 Cl      
   2 Cl2            2.6429     4.7084     0.0027 Cl      
   3 C3            -0.0215     1.7317     0.0116 C.ar    
   4 C4             1.1677     2.4387     0.0040 C.ar    
   5 C5             1.1508     3.8212     0.0116 C.ar    
   6 C6            -0.0604     4.4990     0.0268 C.ar    
   7 O7            -0.0797     5.8583     0.0338 O.3     
   8 C8            -1.3619     6.4889     0.0495 C.3     
   9 C9            -1.1856     7.9856     0.0553 C.2     
  10 N10           -2.2659     8.7913     0.0699 N.am    
  11 C11           -2.1101    10.2523     0.0757 C.3     
  12 C12           -2.9244    10.8396    -1.0813 C.3     
  13 C13           -4.3743    10.3616    -0.9737 C.3     
  14 N14           -5.1633    10.9480    -2.0599 N.am    
  15 C15           -6.4943    11.1050    -1.9172 C.2     
  16 C16           -7.3060    11.7082    -3.0345 C.3     
  17 C17           -8.7770    11.7731    -2.6187 C.3     
  18 C18           -9.6010    12.3854    -3.7531 C.3     
  19 S19          -11.3451    12.4623    -3.2602 S.3     
  20 O20           -7.0387    10.7609    -0.8895 O.2     
  21 C21           -4.4191     8.8354    -1.0774 C.3     
  22 C22           -3.6218     8.2254     0.0741 C.3     
  23 O23           -0.0716     8.4650     0.0469 O.2     
  24 C24           -1.2510     3.7876     0.0343 C.ar    
  25 C25           -1.2297     2.4063     0.0210 C.ar    
  26 H26            2.1096     1.9105    -0.0075 H       
  27 H27           -1.9234     6.1926    -0.8366 H       
  28 H28           -1.9060     6.1837     0.9433 H       
  29 H29           -2.4750    10.6549     1.0206 H       
  30 H30           -1.0582    10.5081    -0.0509 H       
  31 H31           -2.8954    11.9280    -1.0309 H       
  32 H32           -2.5013    10.5074    -2.0294 H       
  33 H33           -4.7889    10.6726    -0.0149 H       
  34 H34           -4.7279    11.2232    -2.8818 H       
  35 H35           -6.9432    12.7143    -3.2450 H       
  36 H36           -7.2079    11.0922    -3.9284 H       
  37 H37           -9.1398    10.7670    -2.4083 H       
  38 H38           -8.8751    12.3891    -1.7249 H       
  39 H39           -9.2383    13.3915    -3.9636 H       
  40 H40           -9.5029    11.7694    -4.6470 H       
  41 H41          -11.9392    13.0119    -4.3345 H       
  42 H42           -5.4540     8.4974    -1.0242 H       
  43 H43           -3.9819     8.5222    -2.0255 H       
  44 H44           -3.5670     7.1443    -0.0537 H       
  45 H45           -4.1125     8.4594     1.0188 H       
  46 H46           -2.1944     4.3132     0.0466 H       
  47 H47           -2.1568     1.8524     0.0220 H       
@<TRIPOS>BOND
   1    1    3 1
   2    2    5 1
   3    3    4 ar
   4    3   25 ar
   5    4    5 ar
   6    4   26 1
   7    5    6 ar
   8    6    7 1
   9    6   24 ar
  10    7    8 1
  11    8    9 1
  12    8   27 1
  13    8   28 1
  14    9   10 am
  15    9   23 2
  16   10   11 1
  17   10   22 1
  18   11   12 1
  19   11   29 1
  20   11   30 1
  21   12   13 1
  22   12   31 1
  23   12   32 1
  24   13   14 1
  25   13   21 1
  26   13   33 1
  27   14   15 am
  28   14   34 1
  29   15   16 1
  30   15   20 2
  31   16   17 1
  32   16   35 1
  33   16   36 1
  34   17   18 1
  35   17   37 1
  36   17   38 1
  37   18   19 1
  38   18   39 1
  39   18   40 1
  40   19   41 1
  41   21   22 1
  42   21   42 1
  43   21   43 1
  44   22   44 1
  45   22   45 1
  46   24   25 ar
  47   24   46 1
  48   25   47 1

#	End of record

