#	Name: ASD01231331
#	Creating user name:	WinNT
#	Creation time:	15. 06. 2019 19:15

#	Modifying user name:	WinNT
#	Modification time:	15. 06. 2019 19:15

#	Program:	/corina/corina34_cracker 3.40 0067  02.08.2006

@<TRIPOS>MOLECULE
ASD01231331
  54   56    0    0    0
SMALL
NO_CHARGES


@<TRIPOS>ATOM
   1 C1            -1.0716     0.5643     0.2066 C.ar    
   2 C2            -1.0643    -0.8104     0.0597 C.ar    
   3 C3             0.1236    -1.5098     0.1599 C.ar    
   4 C4             1.3046    -0.8346     0.4066 C.ar    
   5 C5             1.2974     0.5397     0.5526 C.ar    
   6 C6             0.1090     1.2392     0.4537 C.ar    
   7 S7            -2.5849     1.4567     0.0715 S.o2    
   8 O8            -2.2357     2.7870    -0.2858 O.2     
   9 O9            -3.4598     0.6481    -0.7030 O.2     
  10 N10           -3.2434     1.5376     1.5888 N.am    
  11 C11            0.1314    -3.0083     0.0008 C.3     
  12 C12            1.1997    -4.3508    -5.5091 C.3     
  13 C13            2.6574    -4.8268    -5.3338 C.3     
  14 C14            3.0937    -4.0916    -4.0488 C.3     
  15 C15            1.8147    -3.8532    -3.2751 C.ar    
  16 C16            1.6186    -3.5311    -1.9425 C.ar    
  17 C17            0.3400    -3.3584    -1.4501 C.ar    
  18 C18           -0.7486    -3.5073    -2.2894 C.ar    
  19 C19           -0.5551    -3.8285    -3.6185 C.ar    
  20 C20            0.7264    -4.0021    -4.1142 C.ar    
  21 S21            0.8553    -3.3380    -7.9931 S.o2    
  22 O22            0.9106    -2.0117    -8.5002 O.2     
  23 O23            1.7860    -4.3242    -8.4180 O.2     
  24 N24            1.1514    -3.1683    -6.3726 N.am    
  25 C25           -0.8383    -3.9822    -8.0788 C.3     
  26 C26           -1.7929    -2.9990    -7.3984 C.3     
  27 C27           -1.2442    -4.1562    -9.5437 C.3     
  28 C28           -2.5555     2.2812     2.6472 C.3     
  29 H29           -1.9869    -1.3378    -0.1330 H       
  30 H30            2.2327    -1.3812     0.4857 H       
  31 H31            2.2199     1.0670     0.7460 H       
  32 H32            0.1033     2.3131     0.5685 H       
  33 H33           -4.0846     1.0927     1.7768 H       
  34 H34            0.9393    -3.4328     0.5967 H       
  35 H35           -0.8218    -3.4146     0.3392 H       
  36 H36            0.5883    -5.1506    -5.9270 H       
  37 H37            2.6982    -5.9072    -5.1950 H       
  38 H38            3.2696    -4.5207    -6.1822 H       
  39 H39            3.7755    -4.7144    -3.4697 H       
  40 H40            3.5672    -3.1421    -4.2985 H       
  41 H41            2.4684    -3.4145    -1.2863 H       
  42 H42           -1.7492    -3.3722    -1.9060 H       
  43 H43           -1.4059    -3.9447    -4.2735 H       
  44 H44            1.2928    -2.2860    -5.9952 H       
  45 H45           -0.8867    -4.9457    -7.5714 H       
  46 H46           -2.8106    -3.3860    -7.4499 H       
  47 H47           -1.5037    -2.8749    -6.3548 H       
  48 H48           -1.7445    -2.0355    -7.9058 H       
  49 H49           -0.5641    -4.8567   -10.0284 H       
  50 H50           -2.2618    -4.5433    -9.5952 H       
  51 H51           -1.1958    -3.1928   -10.0511 H       
  52 H52           -1.5680     1.8498     2.8113 H       
  53 H53           -2.4513     3.3245     2.3494 H       
  54 H54           -3.1353     2.2224     3.5683 H       
@<TRIPOS>BOND
   1    1    2 ar
   2    1    6 ar
   3    1    7 1
   4    2    3 ar
   5    2   29 1
   6    3    4 ar
   7    3   11 1
   8    4    5 ar
   9    4   30 1
  10    5    6 ar
  11    5   31 1
  12    6   32 1
  13    7    8 2
  14    7    9 2
  15    7   10 am
  16   10   28 1
  17   10   33 1
  18   11   17 1
  19   11   34 1
  20   11   35 1
  21   12   13 1
  22   12   20 1
  23   12   24 1
  24   12   36 1
  25   13   14 1
  26   13   37 1
  27   13   38 1
  28   14   15 1
  29   14   39 1
  30   14   40 1
  31   15   16 ar
  32   15   20 ar
  33   16   17 ar
  34   16   41 1
  35   17   18 ar
  36   18   19 ar
  37   18   42 1
  38   19   20 ar
  39   19   43 1
  40   21   22 2
  41   21   23 2
  42   21   24 am
  43   21   25 1
  44   24   44 1
  45   25   26 1
  46   25   27 1
  47   25   45 1
  48   26   46 1
  49   26   47 1
  50   26   48 1
  51   27   49 1
  52   27   50 1
  53   27   51 1
  54   28   52 1
  55   28   53 1
  56   28   54 1

#	End of record

