#	Name: ASD00450052
#	Creating user name:	WinNT
#	Creation time:	15. 06. 2019 18:36

#	Modifying user name:	WinNT
#	Modification time:	15. 06. 2019 18:36

#	Program:	/corina/corina34_cracker 3.40 0067  02.08.2006

@<TRIPOS>MOLECULE
ASD00450052
  46   48    0    0    0
SMALL
NO_CHARGES


@<TRIPOS>ATOM
   1 C1             0.6749     0.7990    -0.1075 C.ar    
   2 C2             0.2509    -0.5308     0.0393 C.ar    
   3 C3             1.1296    -1.4832     0.5264 C.ar    
   4 C4             2.4246    -1.1284     0.8691 C.ar    
   5 C5             2.8542     0.1804     0.7291 C.ar    
   6 C6             1.9902     1.1498     0.2426 C.ar    
   7 C7            -0.2486     1.8170    -0.6295 C.2     
   8 O8            -0.9526     2.4490     0.1352 O.2     
   9 N9            -0.3152     2.0499    -1.9554 N.am    
  10 N10            2.4229     2.4625     0.1018 N.pl3   
  11 C11            3.4990     2.9299     0.8640 C.ar    
  12 C12            4.2301     4.0326     0.4351 C.ar    
  13 C13            3.8360     2.2975     2.0533 C.ar    
  14 C14            4.8986     2.7613     2.8041 C.ar    
  15 C15            5.6278     3.8550     2.3732 C.ar    
  16 C16            5.2926     4.4917     1.1916 C.ar    
  17 F17            3.2737    -2.0660     1.3435 F       
  18 F18            3.9029     4.6540    -0.7191 F       
  19 I19            7.2379     4.5541     3.5168 I       
  20 O20           -1.0161    -0.8816    -0.2947 O.3     
  21 C21           -1.3630    -2.1918    -0.1937 C.ar    
  22 C22           -1.6648    -2.7358     1.0454 C.ar    
  23 C23           -2.0186    -4.0737     1.1454 C.ar    
  24 C24           -1.4207    -2.9841    -1.3315 C.ar    
  25 C25           -1.7737    -4.3168    -1.2310 C.ar    
  26 N26           -2.3240    -4.6255     2.3925 N.am    
  27 C27           -2.0693    -4.8647     0.0028 C.ar    
  28 S28           -1.5512    -4.0789     3.7513 S.o2    
  29 N29           -2.0974    -2.5427     4.0414 N.am    
  30 O30           -2.0176    -4.8805     4.8280 O.2     
  31 O31           -0.1770    -3.9585     3.4104 O.2     
  32 Cl32          -2.5111    -6.5390     0.1254 Cl      
  33 H33            0.8044    -2.5068     0.6402 H       
  34 H34            3.8653     0.4470     0.9996 H       
  35 H35            0.2462     1.5459    -2.5651 H       
  36 H36           -0.9244     2.7215    -2.2998 H       
  37 H37            1.9790     3.0549    -0.5249 H       
  38 H38            3.2674     1.4437     2.3912 H       
  39 H39            5.1604     2.2695     3.7293 H       
  40 H40            5.8613     5.3479     0.8599 H       
  41 H41           -1.6243    -2.1193     1.9313 H       
  42 H42           -1.1898    -2.5588    -2.2970 H       
  43 H43           -1.8181    -4.9311    -2.1181 H       
  44 H44           -2.9885    -5.3286     2.4621 H       
  45 H45           -2.7536    -2.1416     3.4503 H       
  46 H46           -1.7611    -2.0440     4.8024 H       
@<TRIPOS>BOND
   1    1    2 ar
   2    1    6 ar
   3    1    7 1
   4    2    3 ar
   5    2   20 1
   6    3    4 ar
   7    3   33 1
   8    4    5 ar
   9    4   17 1
  10    5    6 ar
  11    5   34 1
  12    6   10 1
  13    7    8 2
  14    7    9 am
  15    9   35 1
  16    9   36 1
  17   10   11 1
  18   10   37 1
  19   11   13 ar
  20   11   12 ar
  21   12   16 ar
  22   12   18 1
  23   13   14 ar
  24   13   38 1
  25   14   15 ar
  26   14   39 1
  27   15   16 ar
  28   15   19 1
  29   16   40 1
  30   20   21 1
  31   21   22 ar
  32   21   24 ar
  33   22   23 ar
  34   22   41 1
  35   23   27 ar
  36   23   26 1
  37   24   25 ar
  38   24   42 1
  39   25   27 ar
  40   25   43 1
  41   26   28 am
  42   26   44 1
  43   27   32 1
  44   28   29 am
  45   28   30 2
  46   28   31 2
  47   29   45 1
  48   29   46 1

#	End of record

