#	Name: ASD01884792
#	Creating user name:	WinNT
#	Creation time:	15. 06. 2019 19:48

#	Modifying user name:	WinNT
#	Modification time:	15. 06. 2019 19:48

#	Program:	/corina/corina34_cracker 3.40 0067  02.08.2006

@<TRIPOS>MOLECULE
ASD01884792
  50   54    0    0    0
SMALL
NO_CHARGES


@<TRIPOS>ATOM
   1 C1            -0.4385     1.2691     0.2469 C.3     
   2 C2            -0.1568    -0.2334     0.1834 C.3     
   3 H3            -1.0904    -0.7840     0.2990 H       
   4 C4             0.4754    -0.5778    -1.1650 C.3     
   5 N5             1.0568    -1.9155    -1.1860 N.am    
   6 C6             1.7458    -2.4090    -0.1290 C.2     
   7 O7             2.3998    -3.4317    -0.2102 O.2     
   8 C8             1.6601    -1.6410     1.1204 C.2     
   9 C9             2.3552    -1.7454     2.3060 C.2     
  10 C10            1.8676    -0.7330     3.1586 C.2     
  11 N11            0.9332    -0.0638     2.5266 N.2     
  12 N12            0.7657    -0.6038     1.2588 N.pl3   
  13 C13            3.4094    -2.7297     2.6232 C.2     
  14 C14            4.6429    -2.4675     3.1512 C.2     
  15 C15            5.2469    -3.7481     3.2539 C.2     
  16 N16            4.3660    -4.6081     2.8025 N.2     
  17 O17            3.3445    -4.0630     2.4554 O.3     
  18 C18            6.6046    -4.0527     3.7691 C.ar    
  19 C19            7.1100    -5.3563     3.7091 C.ar    
  20 C20            8.3787    -5.5921     4.2003 C.ar    
  21 C21            9.1081    -4.5336     4.7349 C.ar    
  22 N22           10.3847    -4.7623     5.2304 N.pl3   
  23 N23            8.5998    -3.3108     4.7766 N.ar    
  24 C24            7.3953    -3.0446     4.3133 C.ar    
  25 C25            0.8995    -2.7086    -2.3266 C.ar    
  26 C26            0.1188    -3.8561    -2.2739 C.ar    
  27 C27           -0.0355    -4.6377    -3.4024 C.ar    
  28 C28            0.5865    -4.2795    -4.5838 C.ar    
  29 C29            1.3658    -3.1368    -4.6402 C.ar    
  30 Cl30           2.1451    -2.6909    -6.1260 Cl      
  31 C31            1.5189    -2.3475    -3.5162 C.ar    
  32 C32            0.4163    -5.1351    -5.8127 C.3     
  33 F33           -0.4070    -6.2253    -5.5115 F       
  34 F34           -0.1691    -4.3762    -6.8318 F       
  35 F35            1.6669    -5.5979    -6.2356 F       
  36 H36            0.4955     1.8190     0.1313 H       
  37 H37           -1.1239     1.5444    -0.5547 H       
  38 H38           -0.8877     1.5142     1.2092 H       
  39 H39           -0.2893    -0.5137    -1.9392 H       
  40 H40            1.2571     0.1497    -1.3837 H       
  41 H41            2.2072    -0.5409     4.1657 H       
  42 H42            5.0605    -1.5100     3.4254 H       
  43 H43            6.5216    -6.1588     3.2891 H       
  44 H44            8.8001    -6.5860     4.1704 H       
  45 H45           10.7630    -5.6551     5.2027 H       
  46 H46           10.8983    -4.0293     5.6043 H       
  47 H47            7.0159    -2.0345     4.3603 H       
  48 H48           -0.3671    -4.1373    -1.3513 H       
  49 H49           -0.6426    -5.5300    -3.3615 H       
  50 H50            2.1233    -1.4536    -3.5615 H       
@<TRIPOS>BOND
   1    1    2 1
   2    1   36 1
   3    1   37 1
   4    1   38 1
   5    2    3 1
   6    2   12 1
   7    2    4 1
   8    4    5 1
   9    4   39 1
  10    4   40 1
  11    5    6 am
  12    5   25 1
  13    6    7 2
  14    6    8 1
  15    8   12 1
  16    8    9 2
  17    9   10 1
  18    9   13 1
  19   10   11 2
  20   10   41 1
  21   11   12 1
  22   13   17 1
  23   13   14 2
  24   14   15 1
  25   14   42 1
  26   15   16 2
  27   15   18 1
  28   16   17 1
  29   18   24 ar
  30   18   19 ar
  31   19   20 ar
  32   19   43 1
  33   20   21 ar
  34   20   44 1
  35   21   22 1
  36   21   23 ar
  37   22   45 1
  38   22   46 1
  39   23   24 ar
  40   24   47 1
  41   25   31 ar
  42   25   26 ar
  43   26   27 ar
  44   26   48 1
  45   27   28 ar
  46   27   49 1
  47   28   29 ar
  48   28   32 1
  49   29   30 1
  50   29   31 ar
  51   31   50 1
  52   32   33 1
  53   32   34 1
  54   32   35 1

#	End of record

