#	Name: ASD01882544
#	Creating user name:	WinNT
#	Creation time:	15. 06. 2019 19:44

#	Modifying user name:	WinNT
#	Modification time:	15. 06. 2019 19:44

#	Program:	/corina/corina34_cracker 3.40 0067  02.08.2006

@<TRIPOS>MOLECULE
ASD01882544
  50   54    0    0    0
SMALL
NO_CHARGES


@<TRIPOS>ATOM
   1 C1            -0.0170     1.4050     0.0098 C.2     
   2 C2             0.0021    -0.0041     0.0020 C.2     
   3 C3             1.1991    -0.6521    -0.0129 C.2     
   4 C4             2.3930     0.0893    -0.0203 C.2     
   5 C5             2.3588     1.4383    -0.0123 C.2     
   6 N6             1.1665     2.1012     0.0022 N.pl3   
   7 N7            -0.4824     3.4846     0.0225 N.2     
   8 N8            -0.9895     2.3019     0.0186 N.2     
   9 C9             0.8240     3.4179     0.0121 C.2     
  10 C10            1.2438    -2.1584    -0.0209 C.3     
  11 N11            1.3656    -2.6373    -1.4043 N.3     
  12 C12            1.6496    -4.0787    -1.4395 C.3     
  13 C13            1.6899    -4.5526    -2.8943 C.3     
  14 N14            2.7183    -3.7981    -3.6242 N.3     
  15 C15            2.4343    -2.3567    -3.5890 C.3     
  16 C16            2.3940    -1.8828    -2.1342 C.3     
  17 C17            2.8335    -4.2512    -4.9332 C.ar    
  18 C18            3.7581    -3.6602    -5.7886 C.ar    
  19 C19            3.8622    -4.1209    -7.0884 C.ar    
  20 C20            3.0351    -5.1614    -7.4911 C.ar    
  21 C21            2.1401    -5.7013    -6.5896 C.ar    
  22 N22            2.0663    -5.2451    -5.3534 N.ar    
  23 C23            1.7759     4.5862     0.0100 C.3     
  24 C24            2.0856     4.9891    -1.4332 C.3     
  25 C25            2.9459     6.2357    -1.6495 C.3     
  26 C26            3.5319     4.8469    -1.9116 C.3     
  27 Cl27          -1.4832    -0.9027     0.0120 Cl      
  28 H28            3.3434    -0.4236    -0.0322 H       
  29 H29            3.2826     1.9976    -0.0178 H       
  30 H30            2.1017    -2.4995     0.5585 H       
  31 H31            0.3279    -2.5514     0.4204 H       
  32 H32            2.6131    -4.2711    -0.9676 H       
  33 H33            0.8677    -4.6166    -0.9034 H       
  34 H34            1.9291    -5.6156    -2.9240 H       
  35 H35            0.7180    -4.3851    -3.3584 H       
  36 H36            3.2161    -1.8187    -4.1251 H       
  37 H37            1.4708    -2.1642    -4.0610 H       
  38 H38            2.1548    -0.8198    -2.1045 H       
  39 H39            3.3659    -2.0503    -1.6701 H       
  40 H40            4.3857    -2.8523    -5.4424 H       
  41 H41            4.5705    -3.6813    -7.7750 H       
  42 H42            3.0913    -5.5440    -8.4995 H       
  43 H43            1.4951    -6.5105    -6.8985 H       
  44 H44            1.3200     5.4273     0.5322 H       
  45 H45            2.6998     4.3030     0.5143 H       
  46 H46            1.2942     4.7920    -2.1564 H       
  47 H47            2.7208     6.8585    -2.5153 H       
  48 H48            3.2913     6.7687    -0.7637 H       
  49 H49            4.2628     4.4662    -1.1982 H       
  50 H50            3.6923     4.5560    -2.9497 H       
@<TRIPOS>BOND
   1    1    2 1
   2    1    6 1
   3    1    8 2
   4    2    3 2
   5    2   27 1
   6    3    4 1
   7    3   10 1
   8    4    5 2
   9    4   28 1
  10    5    6 1
  11    5   29 1
  12    6    9 1
  13    7    8 1
  14    7    9 2
  15    9   23 1
  16   10   11 1
  17   10   30 1
  18   10   31 1
  19   11   12 1
  20   11   16 1
  21   12   13 1
  22   12   32 1
  23   12   33 1
  24   13   14 1
  25   13   34 1
  26   13   35 1
  27   14   15 1
  28   14   17 1
  29   15   16 1
  30   15   36 1
  31   15   37 1
  32   16   38 1
  33   16   39 1
  34   17   18 ar
  35   17   22 ar
  36   18   19 ar
  37   18   40 1
  38   19   20 ar
  39   19   41 1
  40   20   21 ar
  41   20   42 1
  42   21   22 ar
  43   21   43 1
  44   23   24 1
  45   23   44 1
  46   23   45 1
  47   24   25 1
  48   24   26 1
  49   24   46 1
  50   25   26 1
  51   25   47 1
  52   25   48 1
  53   26   49 1
  54   26   50 1

#	End of record

