#	Name: ASD01912783
#	Creating user name:	WinNT
#	Creation time:	15. 06. 2019 20:00

#	Modifying user name:	WinNT
#	Modification time:	15. 06. 2019 20:00

#	Program:	/corina/corina34_cracker 3.40 0067  02.08.2006

@<TRIPOS>MOLECULE
ASD01912783
  39   42    0    0    0
SMALL
NO_CHARGES


@<TRIPOS>ATOM
   1 C1            -0.0263     1.3421     0.2536 C.2     
   2 N2             0.0029    -0.0019    -0.0158 N.pl3   
   3 C3            -1.1912    -0.6642    -0.2583 C.2     
   4 C4            -2.3524    -0.0228    -0.2344 C.2     
   5 N5            -2.4358     1.3306     0.0320 N.am    
   6 C6            -1.3127     2.0398     0.2835 C.2     
   7 C7             1.2833     1.7376     0.4526 C.2     
   8 C8             2.0430     0.5807     0.2874 C.2     
   9 N9             1.2236    -0.4066     0.0131 N.2     
  10 O10           -1.3691     3.2332     0.5200 O.2     
  11 C11           -3.6834     1.9661     0.0464 C.ar    
  12 C12            3.5423     0.4815     0.4030 C.3     
  13 O13            4.0824     1.7679     0.7120 O.3     
  14 C14            5.4321     1.8534     0.8514 C.ar    
  15 C15            6.0247     3.0733     1.1517 C.ar    
  16 C16            7.3983     3.1565     1.2928 C.ar    
  17 C17            8.1798     2.0270     1.1350 C.ar    
  18 C18            7.5912     0.8121     0.8361 C.ar    
  19 C19            6.2191     0.7219     0.6997 C.ar    
  20 C20           -4.0008     2.8972    -0.9340 C.ar    
  21 C21           -4.6073     1.6619     1.0376 C.ar    
  22 C22           -5.8372     2.2898     1.0499 C.ar    
  23 C23           -6.1495     3.2223     0.0748 C.ar    
  24 C24           -5.2318     3.5228    -0.9179 C.ar    
  25 F25           -7.3534     3.8351     0.0884 F       
  26 F26            5.2608     4.1769     1.3053 F       
  27 H27           -1.1755    -1.7229    -0.4712 H       
  28 H28           -3.2598    -0.5751    -0.4293 H       
  29 H29            1.6409     2.7297     0.6853 H       
  30 H30            3.7999    -0.2207     1.1958 H       
  31 H31            3.9571     0.1307    -0.5420 H       
  32 H32            7.8605     4.1044     1.5259 H       
  33 H33            9.2521     2.0938     1.2451 H       
  34 H34            8.2043    -0.0685     0.7135 H       
  35 H35            5.7607    -0.2278     0.4665 H       
  36 H36           -3.2853     3.1322    -1.7080 H       
  37 H37           -4.3643     0.9345     1.7981 H       
  38 H38           -6.5562     2.0533     1.8204 H       
  39 H39           -5.4772     4.2506    -1.6773 H       
@<TRIPOS>BOND
   1    1    2 1
   2    1    7 2
   3    1    6 1
   4    2    3 1
   5    2    9 1
   6    3    4 2
   7    3   27 1
   8    4    5 1
   9    4   28 1
  10    5    6 am
  11    5   11 1
  12    6   10 2
  13    7    8 1
  14    7   29 1
  15    8    9 2
  16    8   12 1
  17   11   21 ar
  18   11   20 ar
  19   12   13 1
  20   12   30 1
  21   12   31 1
  22   13   14 1
  23   14   15 ar
  24   14   19 ar
  25   15   16 ar
  26   15   26 1
  27   16   17 ar
  28   16   32 1
  29   17   18 ar
  30   17   33 1
  31   18   19 ar
  32   18   34 1
  33   19   35 1
  34   20   24 ar
  35   20   36 1
  36   21   22 ar
  37   21   37 1
  38   22   23 ar
  39   22   38 1
  40   23   24 ar
  41   23   25 1
  42   24   39 1

#	End of record

