#	Name: ASD05430558
#	Creating user name:	WinNT
#	Creation time:	15. 06. 2019 21:00

#	Modifying user name:	WinNT
#	Modification time:	15. 06. 2019 21:00

#	Program:	/corina/corina34_cracker 3.40 0067  02.08.2006

@<TRIPOS>MOLECULE
ASD05430558
  32   33    0    0    0
SMALL
NO_CHARGES


@<TRIPOS>ATOM
   1 C1            -0.0169     1.3950     0.0097 C.ar    
   2 C2             0.0021    -0.0041     0.0020 C.ar    
   3 C3             1.1768     2.1136     0.0022 C.ar    
   4 C4             2.3807     1.4463    -0.0129 C.ar    
   5 C5             2.4065     0.0587    -0.0211 C.ar    
   6 C6             1.2498    -0.6599    -0.0127 C.ar    
   7 C7             1.1499     3.6203     0.0100 C.3     
   8 C8             1.3039    -2.1659    -0.0216 C.3     
   9 C9             2.0296    -2.6427    -1.2814 C.3     
  10 C10            2.0563    -2.6566     1.2169 C.3     
  11 C11            1.8736     4.1368     1.2552 C.3     
  12 C12            1.8502     4.1495    -1.2432 C.3     
  13 N13           -1.2413    -0.5212     0.0104 N.2     
  14 C14           -2.2273     0.2937     0.0236 C.2     
  15 S15           -1.6987     1.9162     0.0214 S.3     
  16 H16            3.3061     2.0031    -0.0188 H       
  17 H17            3.3552    -0.4573    -0.0336 H       
  18 H18            0.1160     3.9652     0.0214 H       
  19 H19            0.2900    -2.5660    -0.0130 H       
  20 H20            3.0435    -2.2426    -1.2900 H       
  21 H21            2.0687    -3.7320    -1.2879 H       
  22 H22            1.4935    -2.2931    -2.1638 H       
  23 H23            1.5394    -2.3169     2.1144 H       
  24 H24            2.0955    -3.7459     1.2104 H       
  25 H25            3.0702    -2.2565     1.2083 H       
  26 H26            2.9075     3.7920     1.2438 H       
  27 H27            1.8541     5.2267     1.2609 H       
  28 H28            1.3747     3.7599     2.1480 H       
  29 H29            1.3347     3.7815    -2.1302 H       
  30 H30            1.8308     5.2393    -1.2375 H       
  31 H31            2.8842     3.8046    -1.2546 H       
  32 H32           -3.2645    -0.0075     0.0309 H       
@<TRIPOS>BOND
   1    1    2 ar
   2    1    3 ar
   3    1   15 1
   4    2   13 1
   5    2    6 ar
   6    3    4 ar
   7    3    7 1
   8    4    5 ar
   9    4   16 1
  10    5    6 ar
  11    5   17 1
  12    6    8 1
  13    7   11 1
  14    7   12 1
  15    7   18 1
  16    8    9 1
  17    8   10 1
  18    8   19 1
  19    9   20 1
  20    9   21 1
  21    9   22 1
  22   10   23 1
  23   10   24 1
  24   10   25 1
  25   11   26 1
  26   11   27 1
  27   11   28 1
  28   12   29 1
  29   12   30 1
  30   12   31 1
  31   13   14 2
  32   14   15 1
  33   14   32 1

#	End of record

