#	Name: ASD00842118
#	Creating user name:	WinNT
#	Creation time:	15. 06. 2019 18:43

#	Modifying user name:	WinNT
#	Modification time:	15. 06. 2019 18:43

#	Program:	/corina/corina34_cracker 3.40 0067  02.08.2006

@<TRIPOS>MOLECULE
ASD00842118
  92   97    0    0    0
SMALL
NO_CHARGES


@<TRIPOS>ATOM
   1 F1             6.1006    -1.6591    -1.9674 F       
   2 C2             1.0098     1.5592    -0.3880 C.ar    
   3 C3             1.3157     0.2286    -0.6326 C.ar    
   4 C4             1.2454    -0.6978     0.3979 C.ar    
   5 C5             0.8710    -0.2932     1.6644 C.ar    
   6 C6             0.5661     1.0339     1.9056 C.ar    
   7 C7             0.6359     1.9589     0.8807 C.ar    
   8 C8             1.5766    -2.1444     0.1355 C.3     
   9 C9             1.3066    -2.9821     1.3672 C.2     
  10 C10            0.7733    -2.6691    -1.0563 C.3     
  11 C11           -0.6957    -2.4370    -0.8132 C.2     
  12 N12           -1.6062    -2.9080    -1.6882 N.am    
  13 O13           -1.0587    -1.8264     0.1698 O.2     
  14 C14           -3.0324    -2.5941    -1.5262 C.3     
  15 C15           -3.8280    -3.9032    -1.5217 C.3     
  16 C16           -3.4994    -4.6996    -2.7866 C.3     
  17 C17           -2.0077    -5.0410    -2.8034 C.3     
  18 C18           -1.1908    -3.7402    -2.8256 C.3     
  19 C19           -4.3183    -5.9919    -2.8024 C.3     
  20 C20           -5.8112    -5.6519    -2.7874 C.3     
  21 C21           -6.6249    -6.9457    -2.8648 C.3     
  22 N22           -6.2815    -7.6684    -4.0961 N.3     
  23 C23           -4.8628    -8.0470    -4.1116 C.3     
  24 C24           -3.9965    -6.7861    -4.0714 C.3     
  25 C25           -7.1424    -8.8455    -4.2732 C.3     
  26 O26            0.2349    -3.1337     1.9145 O.2     
  27 N27            2.4770    -3.5269     1.7397 N.am    
  28 C28            3.0591    -2.3127    -0.1062 C.ar    
  29 C29            3.5255    -3.1541     0.8961 C.ar    
  30 C30            3.9138    -1.8124    -1.0624 C.ar    
  31 C31            5.2581    -2.1480    -1.0314 C.ar    
  32 C32            5.7350    -2.9864    -0.0365 C.ar    
  33 C33            4.8776    -3.4881     0.9225 C.ar    
  34 Cl34           7.4185    -3.4080     0.0042 Cl      
  35 C35            2.4015    -6.1749     2.4858 C.ar    
  36 C36            1.1580    -6.5613     2.0078 C.ar    
  37 C37            3.4420    -7.0834     2.5147 C.ar    
  38 C38            3.2449    -8.3764     2.0671 C.ar    
  39 C39            2.0061    -8.7642     1.5901 C.ar    
  40 C40            0.9625    -7.8599     1.5596 C.ar    
  41 H41            1.8546    -9.7749     1.2410 H       
  42 O42            0.1328    -5.6697     1.9788 O.3     
  43 C43           -1.1195    -6.1373     1.4737 C.3     
  44 C44           -6.9303    -9.4266    -5.6725 C.3     
  45 O45            1.6834    -0.1671    -1.8797 O.3     
  46 C46            2.1676     0.2186    -4.2158 C.3     
  47 C47            1.6253     0.8155    -2.9156 C.3     
  48 S48            2.6557    -4.5248     3.0491 S.o2    
  49 O49            4.0203    -4.4387     3.4360 O.2     
  50 O50            1.5786    -4.2304     3.9279 O.2     
  51 H51            1.0681     2.2830    -1.1874 H       
  52 H52            0.8161    -1.0139     2.4668 H       
  53 H53            0.2729     1.3481     2.8964 H       
  54 H54            0.3972     2.9948     1.0716 H       
  55 H55            1.0795    -2.1432    -1.9606 H       
  56 H56            0.9575    -3.7366    -1.1768 H       
  57 H57           -3.1863    -2.0697    -0.5831 H       
  58 H58           -3.3648    -1.9673    -2.3537 H       
  59 H59           -3.5593    -4.4892    -0.6428 H       
  60 H60           -4.8947    -3.6805    -1.4988 H       
  61 H61           -3.7453    -4.1033    -3.6653 H       
  62 H62           -1.7561    -5.6163    -1.9124 H       
  63 H63           -1.7788    -5.6281    -3.6928 H       
  64 H64           -1.3742    -3.2094    -3.7598 H       
  65 H65           -0.1297    -3.9735    -2.7378 H       
  66 H66           -4.0721    -6.5899    -1.9250 H       
  67 H67           -6.0548    -5.1234    -1.8657 H       
  68 H68           -6.0493    -5.0205    -3.6434 H       
  69 H69           -6.3966    -7.5705    -2.0013 H       
  70 H70           -7.6882    -6.7063    -2.8687 H       
  71 H71           -4.6428    -8.6666    -3.2423 H       
  72 H72           -4.6463    -8.6075    -5.0210 H       
  73 H73           -4.2060    -6.1725    -4.9476 H       
  74 H74           -2.9436    -7.0679    -4.0671 H       
  75 H75           -6.8888    -9.5969    -3.5254 H       
  76 H76           -8.1859    -8.5534    -4.1554 H       
  77 H77            3.5371    -1.1596    -1.8360 H       
  78 H78            5.2562    -4.1411     1.6950 H       
  79 H79            4.4104    -6.7830     2.8868 H       
  80 H80            4.0597    -9.0849     2.0898 H       
  81 H81           -0.0049    -8.1634     1.1876 H       
  82 H82           -1.8492    -5.3282     1.5057 H       
  83 H83           -0.9937    -6.4725     0.4441 H       
  84 H84           -1.4709    -6.9679     2.0858 H       
  85 H85           -7.5691   -10.3000    -5.8039 H       
  86 H86           -7.1839    -8.6752    -6.4203 H       
  87 H87           -5.8868    -9.7187    -5.7903 H       
  88 H88            2.2051     0.9921    -4.9828 H       
  89 H89            3.1705    -0.1729    -4.0453 H       
  90 H90            1.5136    -0.5887    -4.5454 H       
  91 H91            0.5914     1.1278    -3.0626 H       
  92 H92            2.2286     1.6781    -2.6324 H       
@<TRIPOS>BOND
   1    1   31 1
   2    2    3 ar
   3    2    7 ar
   4    2   51 1
   5    3    4 ar
   6    3   45 1
   7    4    5 ar
   8    4    8 1
   9    5    6 ar
  10    5   52 1
  11    6    7 ar
  12    6   53 1
  13    7   54 1
  14    8    9 1
  15    8   10 1
  16    8   28 1
  17    9   26 2
  18    9   27 am
  19   10   11 1
  20   10   55 1
  21   10   56 1
  22   11   12 am
  23   11   13 2
  24   12   14 1
  25   12   18 1
  26   14   15 1
  27   14   57 1
  28   14   58 1
  29   15   16 1
  30   15   59 1
  31   15   60 1
  32   16   17 1
  33   16   19 1
  34   16   61 1
  35   17   18 1
  36   17   62 1
  37   17   63 1
  38   18   64 1
  39   18   65 1
  40   19   20 1
  41   19   24 1
  42   19   66 1
  43   20   21 1
  44   20   67 1
  45   20   68 1
  46   21   22 1
  47   21   69 1
  48   21   70 1
  49   22   23 1
  50   22   25 1
  51   23   24 1
  52   23   71 1
  53   23   72 1
  54   24   73 1
  55   24   74 1
  56   25   44 1
  57   25   75 1
  58   25   76 1
  59   27   48 am
  60   27   29 1
  61   28   29 ar
  62   28   30 ar
  63   29   33 ar
  64   30   31 ar
  65   30   77 1
  66   31   32 ar
  67   32   33 ar
  68   32   34 1
  69   33   78 1
  70   35   36 ar
  71   35   37 ar
  72   35   48 1
  73   36   42 1
  74   36   40 ar
  75   37   38 ar
  76   37   79 1
  77   38   39 ar
  78   38   80 1
  79   39   40 ar
  80   39   41 1
  81   40   81 1
  82   42   43 1
  83   43   82 1
  84   43   83 1
  85   43   84 1
  86   44   85 1
  87   44   86 1
  88   44   87 1
  89   45   47 1
  90   46   47 1
  91   46   88 1
  92   46   89 1
  93   46   90 1
  94   47   91 1
  95   47   92 1
  96   48   49 2
  97   48   50 2

#	End of record

