#	Name: ASD01912279
#	Creating user name:	WinNT
#	Creation time:	15. 06. 2019 19:59

#	Modifying user name:	WinNT
#	Modification time:	15. 06. 2019 19:59

#	Program:	/corina/corina34_cracker 3.40 0067  02.08.2006

@<TRIPOS>MOLECULE
ASD01912279
  51   52    0    0    0
SMALL
NO_CHARGES


@<TRIPOS>ATOM
   1 N1            -0.0501     1.4995    -0.3504 N.am    
   2 C2             0.1610     0.0948     0.0225 C.3     
   3 C3             0.4046    -0.7231    -1.2521 C.3     
   4 C4             1.4604    -0.0202    -2.0769 C.2     
   5 C5             1.2566     1.4411    -2.4117 C.3     
   6 C6             0.9917     2.2048    -1.1080 C.3     
   7 C7            -1.1891     2.1324    -0.0061 C.2     
   8 O8            -2.2061     1.4936     0.1832 O.2     
   9 N9            -1.2007     3.4734     0.1284 N.am    
  10 C10            2.5434    -0.6721    -2.4977 C.2     
  11 C11            3.5319     0.0102    -3.2775 C.1     
  12 C12            4.3423     0.5696    -3.9167 C.1     
  13 C13            5.3308     1.2519    -4.6964 C.ar    
  14 C14            6.4653     0.5632    -5.1355 C.ar    
  15 C15            7.4101     1.2369    -5.8874 C.ar    
  16 C16            7.1940     2.5775    -6.1784 C.ar    
  17 C17            6.0494     3.1983    -5.7125 C.ar    
  18 N18            5.1604     2.5349    -5.0024 N.ar    
  19 C19            5.8130     4.6530    -6.0271 C.3     
  20 C20            0.0533     4.1985     0.3471 C.3     
  21 C21           -2.4673     4.2059     0.0558 C.3     
  22 C22           -3.6257     3.2122    -0.0516 C.3     
  23 C23           -2.6387     5.0546     1.3173 C.3     
  24 C24           -2.4604     5.1160    -1.1741 C.3     
  25 H25            1.0285     0.0172     0.6779 H       
  26 H26           -0.7227    -0.2836     0.5362 H       
  27 H27            0.7511    -1.7219    -0.9865 H       
  28 H28           -0.5203    -0.7952    -1.8243 H       
  29 H29            2.1517     1.8356    -2.8927 H       
  30 H30            0.4025     1.5488    -3.0802 H       
  31 H31            0.6548     3.2155    -1.3386 H       
  32 H32            1.9069     2.2483    -0.5175 H       
  33 H33            2.6758    -1.7151    -2.2508 H       
  34 H34            6.6020    -0.4797    -4.8907 H       
  35 H35            8.2970     0.7316    -6.2405 H       
  36 H36            7.9139     3.1307    -6.7633 H       
  37 H37            5.2613     4.7373    -6.9634 H       
  38 H38            5.2359     5.1096    -5.2230 H       
  39 H39            6.7708     5.1645    -6.1226 H       
  40 H40            0.5376     4.3843    -0.6116 H       
  41 H41           -0.1572     5.1487     0.8379 H       
  42 H42            0.7127     3.6021     0.9777 H       
  43 H43           -3.6306     2.5638     0.8246 H       
  44 H44           -4.5681     3.7572    -0.1056 H       
  45 H45           -3.5036     2.6076    -0.9503 H       
  46 H46           -1.8134     5.7625     1.3938 H       
  47 H47           -3.5811     5.5996     1.2633 H       
  48 H48           -2.6436     4.4062     2.1935 H       
  49 H49           -2.3383     4.5114    -2.0728 H       
  50 H50           -3.4028     5.6610    -1.2281 H       
  51 H51           -1.6352     5.8239    -1.0976 H       
@<TRIPOS>BOND
   1    1    2 1
   2    1    6 1
   3    1    7 am
   4    2    3 1
   5    2   25 1
   6    2   26 1
   7    3    4 1
   8    3   27 1
   9    3   28 1
  10    4    5 1
  11    4   10 2
  12    5    6 1
  13    5   29 1
  14    5   30 1
  15    6   31 1
  16    6   32 1
  17    7    8 2
  18    7    9 am
  19    9   20 1
  20    9   21 1
  21   10   11 1
  22   10   33 1
  23   11   12 3
  24   12   13 1
  25   13   14 ar
  26   13   18 ar
  27   14   15 ar
  28   14   34 1
  29   15   16 ar
  30   15   35 1
  31   16   17 ar
  32   16   36 1
  33   17   18 ar
  34   17   19 1
  35   19   37 1
  36   19   38 1
  37   19   39 1
  38   20   40 1
  39   20   41 1
  40   20   42 1
  41   21   22 1
  42   21   24 1
  43   21   23 1
  44   22   43 1
  45   22   44 1
  46   22   45 1
  47   23   46 1
  48   23   47 1
  49   23   48 1
  50   24   49 1
  51   24   50 1
  52   24   51 1

#	End of record

