#	Name: ASD03330140
#	Creating user name:	WinNT
#	Creation time:	15. 06. 2019 20:36

#	Modifying user name:	WinNT
#	Modification time:	15. 06. 2019 20:36

#	Program:	/corina/corina34_cracker 3.40 0067  02.08.2006

@<TRIPOS>MOLECULE
ASD03330140
  72   76    0    0    0
SMALL
NO_CHARGES


@<TRIPOS>ATOM
   1 C1            -2.8778     0.7717     3.5479 C.3     
   2 C2            -2.3759    -0.5924     3.0702 C.3     
   3 C3            -3.4582    -1.2665     2.2247 C.3     
   4 S4            -1.5945     1.5710     4.5504 S.o2    
   5 O5            -2.0862     2.8653     4.9966 O.co2   
   6 O6            -1.3002     0.7252     5.6967 O.co2   
   7 O7            -0.4017     1.7425     3.7356 O.co2   
   8 C8            -2.9639    -2.6101     1.7542 C.ar    
   9 C9            -3.1898    -3.7361     2.5255 C.ar    
  10 C10           -2.7395    -4.9691     2.0998 C.ar    
  11 C11           -2.0561    -5.0787     0.8895 C.ar    
  12 C12           -1.8318    -3.9405     0.1163 C.ar    
  13 C13           -2.2910    -2.7136     0.5499 C.ar    
  14 C14           -1.9020    -6.9314    -0.7985 C.2     
  15 C15           -1.5695    -6.4003     0.4270 C.2     
  16 C16           -0.7443    -7.2024     1.1880 C.2     
  17 C17           -0.3978    -8.3820     0.6011 C.2     
  18 S18           -1.1389    -8.5037    -0.9880 S.3     
  19 C19           -2.7717    -6.2825    -1.7985 C.ar    
  20 C20           -2.3572    -6.1812    -3.1299 C.ar    
  21 C21           -3.1766    -5.5727    -4.0595 C.ar    
  22 C22           -4.4048    -5.0641    -3.6757 C.ar    
  23 C23           -4.8209    -5.1612    -2.3596 C.ar    
  24 C24           -4.0155    -5.7717    -1.4207 C.ar    
  25 Cl25          -0.8162    -6.8182    -3.6127 Cl      
  26 C26            0.4667    -9.3995     1.2055 C.2     
  27 O27            1.4596    -9.0647     1.8246 O.2     
  28 N28            0.1621   -10.7060     1.0758 N.am    
  29 C29           -0.9760   -11.1309     0.2494 C.3     
  30 C30           -1.8909   -12.0248     1.0925 C.3     
  31 C31           -1.0728   -13.1787     1.6765 C.3     
  32 C32            0.0257   -12.6196     2.5837 C.3     
  33 C33            0.9657   -11.7328     1.7530 C.3     
  34 C34           -1.9764   -14.0792     2.4787 C.ar    
  35 C35           -1.8007   -14.1952     3.8450 C.ar    
  36 C36           -2.6296   -15.0212     4.5808 C.ar    
  37 C37           -3.6345   -15.7310     3.9505 C.ar    
  38 C38           -3.8108   -15.6144     2.5844 C.ar    
  39 C39           -2.9847   -14.7850     1.8492 C.ar    
  40 C40           -0.4454   -13.9670     0.5558 C.2     
  41 N41            0.4328   -14.9510     0.8333 N.am    
  42 O42           -0.7308   -13.7160    -0.5959 O.2     
  43 H43           -3.1068     1.3971     2.6851 H       
  44 H44           -3.7773     0.6379     4.1487 H       
  45 H45           -1.4763    -0.4586     2.4695 H       
  46 H46           -2.1468    -1.2178     3.9331 H       
  47 H47           -4.3578    -1.4003     2.8255 H       
  48 H48           -3.6873    -0.6411     1.3618 H       
  49 H49           -3.7193    -3.6499     3.4628 H       
  50 H50           -2.9158    -5.8473     2.7031 H       
  51 H51           -1.3030    -4.0195    -0.8221 H       
  52 H52           -2.1211    -1.8318    -0.0500 H       
  53 H53           -0.4000    -6.9175     2.1712 H       
  54 H54           -2.8581    -5.4930    -5.0883 H       
  55 H55           -5.0418    -4.5887    -4.4069 H       
  56 H56           -5.7810    -4.7619    -2.0675 H       
  57 H57           -4.3440    -5.8505    -0.3949 H       
  58 H58           -1.5304   -10.2548    -0.0872 H       
  59 H59           -0.6129   -11.6898    -0.6131 H       
  60 H60           -2.3248   -11.4395     1.9033 H       
  61 H61           -2.6876   -12.4246     0.4651 H       
  62 H62           -0.4262   -12.0288     3.3804 H       
  63 H63            0.5932   -13.4428     3.0177 H       
  64 H64            1.4839   -12.3398     1.0106 H       
  65 H65            1.6929   -11.2540     2.4088 H       
  66 H66           -1.0156   -13.6407     4.3374 H       
  67 H67           -2.4918   -15.1124     5.6481 H       
  68 H68           -4.2816   -16.3769     4.5253 H       
  69 H69           -4.5957   -16.1691     2.0920 H       
  70 H70           -3.1248   -14.6910     0.7825 H       
  71 H71            0.6058   -15.2010     1.7544 H       
  72 H72            0.8918   -15.4090     0.1119 H       
@<TRIPOS>BOND
   1    1    2 1
   2    1    4 1
   3    1   43 1
   4    1   44 1
   5    2    3 1
   6    2   45 1
   7    2   46 1
   8    3    8 1
   9    3   47 1
  10    3   48 1
  11    4    5 ar
  12    4    6 ar
  13    4    7 ar
  14    8    9 ar
  15    8   13 ar
  16    9   10 ar
  17    9   49 1
  18   10   11 ar
  19   10   50 1
  20   11   12 ar
  21   11   15 1
  22   12   13 ar
  23   12   51 1
  24   13   52 1
  25   14   15 2
  26   14   18 1
  27   14   19 1
  28   15   16 1
  29   16   17 2
  30   16   53 1
  31   17   18 1
  32   17   26 1
  33   19   20 ar
  34   19   24 ar
  35   20   21 ar
  36   20   25 1
  37   21   22 ar
  38   21   54 1
  39   22   23 ar
  40   22   55 1
  41   23   24 ar
  42   23   56 1
  43   24   57 1
  44   26   27 2
  45   26   28 am
  46   28   29 1
  47   28   33 1
  48   29   30 1
  49   29   58 1
  50   29   59 1
  51   30   31 1
  52   30   60 1
  53   30   61 1
  54   31   32 1
  55   31   34 1
  56   31   40 1
  57   32   33 1
  58   32   62 1
  59   32   63 1
  60   33   64 1
  61   33   65 1
  62   34   35 ar
  63   34   39 ar
  64   35   36 ar
  65   35   66 1
  66   36   37 ar
  67   36   67 1
  68   37   38 ar
  69   37   68 1
  70   38   39 ar
  71   38   69 1
  72   39   70 1
  73   40   41 am
  74   40   42 2
  75   41   71 1
  76   41   72 1

#	End of record

