#	Name: ASD01881080
#	Creating user name:	WinNT
#	Creation time:	15. 06. 2019 19:42

#	Modifying user name:	WinNT
#	Modification time:	15. 06. 2019 19:42

#	Program:	/corina/corina34_cracker 3.40 0067  02.08.2006

@<TRIPOS>MOLECULE
ASD01881080
  47   50    0    0    0
SMALL
NO_CHARGES


@<TRIPOS>ATOM
   1 C1            -0.1393     1.4502    -0.7770 C.ar    
   2 C2            -0.1499     0.0645    -0.9704 C.ar    
   3 C3             0.9890    -0.5933    -1.4196 C.ar    
   4 C4             2.1442     0.1408    -1.6769 C.ar    
   5 C5             2.1442     1.5424    -1.4785 C.ar    
   6 C6             0.9875     2.1816    -1.0258 C.ar    
   7 C7             3.3755    -0.4947    -2.1514 C.2     
   8 C8             4.4605     0.2612    -2.3832 C.2     
   9 N9             4.4639     1.6137    -2.1929 N.am    
  10 C10            3.3777     2.2827    -1.7590 C.2     
  11 C11            5.6918     2.3632    -2.4698 C.3     
  12 C12            5.6936     2.8173    -3.9309 C.3     
  13 C13            6.9759     3.6002    -4.2200 C.3     
  14 O14            3.4204     3.4899    -1.6019 O.2     
  15 Cl15           0.9815     3.9003    -0.7812 Cl      
  16 C16           -1.3850    -0.7079    -0.6935 C.ar    
  17 C17           -2.5401    -0.0610    -0.2402 C.ar    
  18 C18           -3.6664    -0.8228     0.0042 C.ar    
  19 C19           -3.6161    -2.1960    -0.2064 C.ar    
  20 N20           -2.5074    -2.7778    -0.6355 N.ar    
  21 C21           -1.4139    -2.0871    -0.8863 C.ar    
  22 O22           -4.7182    -2.9499     0.0315 O.3     
  23 C23           -4.6045    -4.2994    -0.0814 C.ar    
  24 C24           -3.9795    -5.0302     0.9188 C.ar    
  25 C25           -3.8657    -6.4019     0.8019 C.ar    
  26 C26           -4.3740    -7.0467    -0.3107 C.ar    
  27 C27           -4.9973    -6.3207    -1.3088 C.ar    
  28 C28           -5.1184    -4.9494    -1.1943 C.ar    
  29 H29           -1.0334     1.9479    -0.4314 H       
  30 H30            0.9783    -1.6631    -1.5674 H       
  31 H31            3.4104    -1.5620    -2.3130 H       
  32 H32            5.3634    -0.2175    -2.7326 H       
  33 H33            5.7396     3.2357    -1.8181 H       
  34 H34            6.5562     1.7250    -2.2866 H       
  35 H35            5.6457     1.9449    -4.5825 H       
  36 H36            4.8292     3.4555    -4.1141 H       
  37 H37            7.0238     4.4726    -3.5684 H       
  38 H38            7.8404     2.9620    -4.0368 H       
  39 H39            6.9772     3.9237    -5.2609 H       
  40 H40           -2.5507     1.0077    -0.0849 H       
  41 H41           -4.5753    -0.3569     0.3551 H       
  42 H42           -0.5279    -2.5967    -1.2353 H       
  43 H43           -3.5820    -4.5271     1.7879 H       
  44 H44           -3.3789    -6.9712     1.5799 H       
  45 H45           -4.2836    -8.1192    -0.4004 H       
  46 H46           -5.3932    -6.8266    -2.1770 H       
  47 H47           -5.6057    -4.3829    -1.9740 H       
@<TRIPOS>BOND
   1    1    2 ar
   2    1    6 ar
   3    1   29 1
   4    2    3 ar
   5    2   16 1
   6    3    4 ar
   7    3   30 1
   8    4    5 ar
   9    4    7 1
  10    5    6 ar
  11    5   10 1
  12    6   15 1
  13    7    8 2
  14    7   31 1
  15    8    9 1
  16    8   32 1
  17    9   10 am
  18    9   11 1
  19   10   14 2
  20   11   12 1
  21   11   33 1
  22   11   34 1
  23   12   13 1
  24   12   35 1
  25   12   36 1
  26   13   37 1
  27   13   38 1
  28   13   39 1
  29   16   17 ar
  30   16   21 ar
  31   17   18 ar
  32   17   40 1
  33   18   19 ar
  34   18   41 1
  35   19   20 ar
  36   19   22 1
  37   20   21 ar
  38   21   42 1
  39   22   23 1
  40   23   24 ar
  41   23   28 ar
  42   24   25 ar
  43   24   43 1
  44   25   26 ar
  45   25   44 1
  46   26   27 ar
  47   26   45 1
  48   27   28 ar
  49   27   46 1
  50   28   47 1

#	End of record

