#	Name: ASD01913943
#	Creating user name:	WinNT
#	Creation time:	15. 06. 2019 20:02

#	Modifying user name:	WinNT
#	Modification time:	15. 06. 2019 20:02

#	Program:	/corina/corina34_cracker 3.40 0067  02.08.2006

@<TRIPOS>MOLECULE
ASD01913943
  44   46    0    0    0
SMALL
NO_CHARGES


@<TRIPOS>ATOM
   1 C1             0.0402     1.4282     0.0717 C.ar    
   2 C2             0.0600    -0.0037     0.0622 C.1     
   3 C3             0.0762    -1.1775     0.0545 C.1     
   4 C4             0.0960    -2.6094     0.0450 C.ar    
   5 N5             0.1545    -3.2842     1.1934 N.ar    
   6 C6             0.1296    -5.2904    -0.0285 C.ar    
   7 N7             0.0660    -4.6217    -1.1735 N.ar    
   8 C8             0.0481    -3.3024    -1.1681 C.ar    
   9 C9             0.1721    -4.6021     1.1819 C.ar    
  10 C10            0.0880     2.1227     1.2833 C.ar    
  11 C11            0.0028     4.1992     0.0868 C.ar    
  12 N12            0.1479    -6.6834    -0.0371 N.am    
  13 C13           -0.0211     2.1372    -1.1309 C.ar    
  14 C14            0.0690     3.5038     1.2842 C.ar    
  15 C15           -0.0394     3.5164    -1.1154 C.ar    
  16 C16           -1.0185    -7.3375    -0.0240 C.2     
  17 O17           -1.1073    -8.6761     0.0137 O.3     
  18 C18            0.0863    -9.4312    -0.3330 C.3     
  19 C19            1.2763    -8.8111     0.4120 C.3     
  20 C20            1.4401    -7.3638    -0.0661 C.3     
  21 C21           -0.0848   -10.8913     0.0910 C.3     
  22 C22            0.3253    -9.3553    -1.8423 C.3     
  23 O23           -2.0460    -6.6894    -0.0470 O.2     
  24 O24            1.0276    -8.8329     1.8190 O.3     
  25 C25            2.2087    -8.9383     2.6165 C.3     
  26 F26            0.1095     4.1780     2.4543 F       
  27 H27           -0.0038    -2.7586    -2.0998 H       
  28 H28            0.2198    -5.1489     2.1120 H       
  29 H29            0.1393     1.5812     2.2163 H       
  30 H30           -0.0118     5.2791     0.0925 H       
  31 H31           -0.0537     1.6063    -2.0708 H       
  32 H32           -0.0868     4.0648    -2.0446 H       
  33 H33            2.1825    -9.3747     0.1900 H       
  34 H34            1.8348    -7.3606    -1.0821 H       
  35 H35            2.1344    -6.8415     0.5922 H       
  36 H36           -0.9452   -11.3204    -0.4224 H       
  37 H37            0.8119   -11.4531    -0.1708 H       
  38 H38           -0.2428   -10.9406     1.1684 H       
  39 H39            0.4583    -8.3144    -2.1372 H       
  40 H40            1.2205    -9.9224    -2.0974 H       
  41 H41           -0.5326    -9.7750    -2.3676 H       
  42 H42            2.7335    -9.8608     2.3683 H       
  43 H43            2.8584    -8.0859     2.4178 H       
  44 H44            1.9351    -8.9485     3.6715 H       
@<TRIPOS>BOND
   1    1    2 1
   2    1   13 ar
   3    1   10 ar
   4    2    3 3
   5    3    4 1
   6    4    5 ar
   7    4    8 ar
   8    5    9 ar
   9    6    7 ar
  10    6   12 1
  11    6    9 ar
  12    7    8 ar
  13    8   27 1
  14    9   28 1
  15   10   14 ar
  16   10   29 1
  17   11   14 ar
  18   11   15 ar
  19   11   30 1
  20   12   16 am
  21   12   20 1
  22   13   15 ar
  23   13   31 1
  24   14   26 1
  25   15   32 1
  26   16   17 1
  27   16   23 2
  28   17   18 1
  29   18   19 1
  30   18   21 1
  31   18   22 1
  32   19   20 1
  33   19   24 1
  34   19   33 1
  35   20   34 1
  36   20   35 1
  37   21   36 1
  38   21   37 1
  39   21   38 1
  40   22   39 1
  41   22   40 1
  42   22   41 1
  43   24   25 1
  44   25   42 1
  45   25   43 1
  46   25   44 1

#	End of record

