#	Name: ASD01812800
#	Creating user name:	WinNT
#	Creation time:	15. 06. 2019 19:29

#	Modifying user name:	WinNT
#	Modification time:	15. 06. 2019 19:29

#	Program:	/corina/corina34_cracker 3.40 0067  02.08.2006

@<TRIPOS>MOLECULE
ASD01812800
  49   53    0    0    0
SMALL
NO_CHARGES


@<TRIPOS>ATOM
   1 N1            -0.0158     1.3131     0.0093 N.ar    
   2 C2             0.0021    -0.0041     0.0020 C.ar    
   3 N3             1.1297    -0.6934    -0.0120 N.ar    
   4 C4             2.2937    -0.0788    -0.0198 C.ar    
   5 C5             2.3340     1.3184    -0.0131 C.ar    
   6 C6             1.1134     2.0143     0.0022 C.ar    
   7 C7             3.7270    -0.5433    -0.0361 C.3     
   8 N8             4.5517     0.6712    -0.0379 N.am    
   9 C9             3.7399     1.7438    -0.0246 C.2     
  10 C10            6.0161     0.7089    -0.0519 C.3     
  11 C11            6.5045     0.7290    -1.4774 C.ar    
  12 C12            6.6970     1.9370    -2.1229 C.ar    
  13 C13            7.1446     1.9611    -3.4284 C.ar    
  14 C14            7.4025     0.7659    -4.0958 C.ar    
  15 C15            7.2069    -0.4480    -3.4410 C.ar    
  16 C16            6.7640    -0.4606    -2.1338 C.ar    
  17 O17            1.0880     3.3668     0.0093 O.3     
  18 O18            4.1161     2.9000    -0.0228 O.2     
  19 C19           -0.1971     3.9915     0.0245 C.3     
  20 C20            8.1735    -0.3038    -6.2686 C.2     
  21 C21            7.8836     0.7857    -5.5003 C.2     
  22 C22            8.1238     1.9327    -6.2817 C.2     
  23 N23            8.5368     1.5429    -7.4586 N.2     
  24 N24            8.5764     0.1434    -7.4751 N.pl3   
  25 C25            8.9855    -0.6910    -8.6076 C.3     
  26 C26           -0.2110     5.3547     0.7360 C.3     
  27 C27           -1.1522     5.8391    -0.3795 C.3     
  28 C28           -0.5275     4.7524    -1.2704 C.3     
  29 H29           -0.9363    -0.5387     0.0081 H       
  30 H30            3.9381    -1.1382     0.8526 H       
  31 H31            3.9208    -1.1292    -0.9346 H       
  32 H32            6.3614     1.6053     0.4631 H       
  33 H33            6.4071    -0.1740     0.4537 H       
  34 H34            6.4965     2.8631    -1.6047 H       
  35 H35            7.2943     2.9049    -3.9316 H       
  36 H36            7.4053    -1.3774    -3.9539 H       
  37 H37            6.6159    -1.4010    -1.6238 H       
  38 H38           -0.9904     3.3198     0.3523 H       
  39 H39            8.0983    -1.3372    -5.9641 H       
  40 H40            7.9896     2.9560    -5.9637 H       
  41 H41            8.1152    -0.9218    -9.2219 H       
  42 H42            9.7213    -0.1547    -9.2069 H       
  43 H43            9.4244    -1.6172    -8.2367 H       
  44 H44           -0.6780     5.3286     1.7206 H       
  45 H45            0.7570     5.8557     0.7388 H       
  46 H46           -2.2075     5.6730    -0.1632 H       
  47 H47           -0.9429     6.8541    -0.7172 H       
  48 H48            0.3540     5.0887    -1.8162 H       
  49 H49           -1.2500     4.2400    -1.9057 H       
@<TRIPOS>BOND
   1    1    2 ar
   2    1    6 ar
   3    2    3 ar
   4    2   29 1
   5    3    4 ar
   6    4    7 1
   7    4    5 ar
   8    5    6 ar
   9    5    9 1
  10    6   17 1
  11    7    8 1
  12    7   30 1
  13    7   31 1
  14    8    9 am
  15    8   10 1
  16    9   18 2
  17   10   11 1
  18   10   32 1
  19   10   33 1
  20   11   12 ar
  21   11   16 ar
  22   12   13 ar
  23   12   34 1
  24   13   14 ar
  25   13   35 1
  26   14   15 ar
  27   14   21 1
  28   15   16 ar
  29   15   36 1
  30   16   37 1
  31   17   19 1
  32   19   26 1
  33   19   28 1
  34   19   38 1
  35   20   21 2
  36   20   24 1
  37   20   39 1
  38   21   22 1
  39   22   23 2
  40   22   40 1
  41   23   24 1
  42   24   25 1
  43   25   41 1
  44   25   42 1
  45   25   43 1
  46   26   27 1
  47   26   44 1
  48   26   45 1
  49   27   28 1
  50   27   46 1
  51   27   47 1
  52   28   48 1
  53   28   49 1

#	End of record

