#	Name: ASD03092961
#	Creating user name:	WinNT
#	Creation time:	15. 06. 2019 20:33

#	Modifying user name:	WinNT
#	Modification time:	15. 06. 2019 20:33

#	Program:	/corina/corina34_cracker 3.40 0067  02.08.2006

@<TRIPOS>MOLECULE
ASD03092961
  43   45    0    0    0
SMALL
NO_CHARGES


@<TRIPOS>ATOM
   1 F1             1.4183     0.0068     0.2440 F       
   2 C2             1.2340     1.3449     0.2143 C.ar    
   3 C3            -0.0446     1.8661     0.1119 C.ar    
   4 C4            -0.2319     3.2350     0.0817 C.ar    
   5 C5             0.8569     4.0839     0.1536 C.ar    
   6 C6             0.6513     5.5764     0.1210 C.3     
   7 N7             0.4813     6.0759     1.4877 N.pl3   
   8 C8             0.2770     7.4253     1.7102 C.ar    
   9 N9             0.3403     8.2854     0.7004 N.ar    
  10 C10            0.1446     9.5733     0.9172 C.ar    
  11 C11           -0.1276    10.0351     2.1969 C.ar    
  12 N12           -0.1930     9.1934     3.2085 N.ar    
  13 C13           -0.0043     7.8927     3.0048 C.ar    
  14 C14           -0.0838     6.9452     4.1350 C.2     
  15 O15           -0.0092     5.7488     3.9317 O.2     
  16 N16           -0.2391     7.4068     5.3917 N.am    
  17 C17           -0.4227     6.5094     6.4486 C.ar    
  18 C18            0.0778     6.8095     7.7099 C.ar    
  19 C19           -0.1005     5.9258     8.7581 C.ar    
  20 C20           -0.7767     4.7397     8.5592 C.ar    
  21 C21           -1.2842     4.4286     7.2956 C.ar    
  22 C22           -1.1090     5.3230     6.2394 C.ar    
  23 C23           -1.9864     3.1983     7.0863 C.1     
  24 N24           -2.5435     2.2223     6.9202 N.1     
  25 C25           -0.9673     3.7797     9.7051 C.3     
  26 F26           -0.3762     4.3068    10.8583 F       
  27 F27           -2.3347     3.5861     9.9288 F       
  28 F28           -0.3680     2.5549     9.3920 F       
  29 C29            2.1340     3.5646     0.2559 C.ar    
  30 C30            2.3233     2.1961     0.2921 C.ar    
  31 H31           -0.8953     1.2031     0.0554 H       
  32 H32           -1.2291     3.6417     0.0014 H       
  33 H33            1.5194     6.0529    -0.3346 H       
  34 H34           -0.2389     5.8079    -0.4638 H       
  35 H35            0.5122     5.4601     2.2365 H       
  36 H36            0.1969    10.2707     0.0942 H       
  37 H37           -0.2863    11.0901     2.3649 H       
  38 H38           -0.2234     8.3614     5.5631 H       
  39 H39            0.6083     7.7363     7.8718 H       
  40 H40            0.2911     6.1646     9.7358 H       
  41 H41           -1.5029     5.0902     5.2611 H       
  42 H42            2.9839     4.2287     0.3117 H       
  43 H43            3.3207     1.7908     0.3765 H       
@<TRIPOS>BOND
   1    1    2 1
   2    2   30 ar
   3    2    3 ar
   4    3    4 ar
   5    3   31 1
   6    4    5 ar
   7    4   32 1
   8    5    6 1
   9    5   29 ar
  10    6    7 1
  11    6   33 1
  12    6   34 1
  13    7    8 1
  14    7   35 1
  15    8   13 ar
  16    8    9 ar
  17    9   10 ar
  18   10   11 ar
  19   10   36 1
  20   11   12 ar
  21   11   37 1
  22   12   13 ar
  23   13   14 1
  24   14   15 2
  25   14   16 am
  26   16   17 1
  27   16   38 1
  28   17   22 ar
  29   17   18 ar
  30   18   19 ar
  31   18   39 1
  32   19   20 ar
  33   19   40 1
  34   20   21 ar
  35   20   25 1
  36   21   22 ar
  37   21   23 1
  38   22   41 1
  39   23   24 3
  40   25   26 1
  41   25   27 1
  42   25   28 1
  43   29   30 ar
  44   29   42 1
  45   30   43 1

#	End of record

