#	Name: ASD03330078
#	Creating user name:	WinNT
#	Creation time:	15. 06. 2019 20:36

#	Modifying user name:	WinNT
#	Modification time:	15. 06. 2019 20:36

#	Program:	/corina/corina34_cracker 3.40 0067  02.08.2006

@<TRIPOS>MOLECULE
ASD03330078
  69   73    0    0    0
SMALL
NO_CHARGES


@<TRIPOS>ATOM
   1 C1             0.1341     1.4756     0.0198 C.2     
   2 C2             0.0283     0.2612     0.6291 C.2     
   3 C3             1.3336     2.1235     0.2305 C.2     
   4 C4             2.2203     1.4301     1.0224 C.2     
   5 S5             1.5033    -0.0976     1.5151 S.3     
   6 C6             3.5675     1.8978     1.4006 C.ar    
   7 C7             3.9715     1.8673     2.7390 C.ar    
   8 C8             4.4472     2.3677     0.4227 C.ar    
   9 C9             5.7053     2.8030     0.7827 C.ar    
  10 C10            6.0981     2.7750     2.1105 C.ar    
  11 C11            5.2333     2.3060     3.0853 C.ar    
  12 C12            1.6415     3.4535    -0.3473 C.ar    
  13 C13            1.5500     3.6548    -1.7243 C.ar    
  14 C14            2.0176     4.5068     0.4859 C.ar    
  15 C15            2.3035     5.7427    -0.0536 C.ar    
  16 C16            2.2172     5.9397    -1.4275 C.ar    
  17 C17            1.8368     4.8924    -2.2595 C.ar    
  18 C18           -1.1430    -0.6162     0.5566 C.2     
  19 O19           -2.2622    -0.1457     0.6437 O.2     
  20 S20            2.5827     7.5207    -2.1142 S.3     
  21 N21           -0.9812    -1.9442     0.3935 N.am    
  22 C22           -2.1447    -2.8244     0.2193 C.3     
  23 C23            0.3624    -2.5386     0.3804 C.3     
  24 C24            0.5222    -3.3682    -0.8975 C.3     
  25 C25           -0.6166    -4.3868    -0.9853 C.3     
  26 C26           -1.9516    -3.6501    -1.0565 C.3     
  27 C27           -0.4437    -5.2275    -2.2240 C.ar    
  28 C28           -1.3744    -5.1557    -3.2436 C.ar    
  29 C29           -1.2158    -5.9270    -4.3798 C.ar    
  30 C30           -0.1263    -6.7697    -4.4966 C.ar    
  31 C31            0.8049    -6.8408    -3.4774 C.ar    
  32 C32            0.6486    -6.0664    -2.3431 C.ar    
  33 Cl33           2.8884     1.2797     3.9618 Cl      
  34 Cl34           7.6839     3.3245     2.5542 Cl      
  35 C35           -0.5905    -5.2751     0.2317 C.2     
  36 N36           -1.5872    -6.1573     0.4435 N.am    
  37 O37            0.3273    -5.1962     1.0206 O.2     
  38 C38            2.3294     7.2619    -3.8917 C.3     
  39 C39            2.6117     8.5650    -4.6421 C.3     
  40 N40            2.4066     8.3554    -6.0816 N.3     
  41 H41           -0.6568     1.8954    -0.5839 H       
  42 H42            4.1429     2.3897    -0.6133 H       
  43 H43            6.3861     3.1665     0.0272 H       
  44 H44            5.5457     2.2870     4.1190 H       
  45 H45            1.2549     2.8417    -2.3709 H       
  46 H46            2.0845     4.3544     1.5530 H       
  47 H47            2.5945     6.5588     0.5913 H       
  48 H48            1.7704     5.0476    -3.3262 H       
  49 H49           -2.2299    -3.4916     1.0770 H       
  50 H50           -3.0487    -2.2218     0.1313 H       
  51 H51            1.1121    -1.7475     0.3986 H       
  52 H52            0.4859    -3.1820     1.2516 H       
  53 H53            0.4889    -2.7095    -1.7654 H       
  54 H54            1.4778    -3.8919    -0.8742 H       
  55 H55           -2.7623    -4.3737    -1.1426 H       
  56 H56           -1.9578    -2.9912    -1.9247 H       
  57 H57           -2.2256    -4.4973    -3.1523 H       
  58 H58           -1.9434    -5.8714    -5.1760 H       
  59 H59           -0.0028    -7.3728    -5.3840 H       
  60 H60            1.6560    -7.4995    -3.5686 H       
  61 H61            1.3762    -6.1219    -1.5469 H       
  62 H62           -2.2826    -6.2727    -0.2228 H       
  63 H63           -1.6091    -6.6769     1.2623 H       
  64 H64            3.0065     6.4846    -4.2458 H       
  65 H65            1.2988     6.9553    -4.0710 H       
  66 H66            1.9346     9.3422    -4.2880 H       
  67 H67            3.6422     8.8715    -4.4628 H       
  68 H68            1.4775     8.0087    -6.2677 H       
  69 H69            2.5870     9.2023    -6.5996 H       
@<TRIPOS>BOND
   1    1    2 2
   2    1    3 1
   3    1   41 1
   4    2   18 1
   5    2    5 1
   6    3    4 2
   7    3   12 1
   8    4    5 1
   9    4    6 1
  10    6    7 ar
  11    6    8 ar
  12    7   33 1
  13    7   11 ar
  14    8    9 ar
  15    8   42 1
  16    9   10 ar
  17    9   43 1
  18   10   11 ar
  19   10   34 1
  20   11   44 1
  21   12   13 ar
  22   12   14 ar
  23   13   17 ar
  24   13   45 1
  25   14   15 ar
  26   14   46 1
  27   15   16 ar
  28   15   47 1
  29   16   17 ar
  30   16   20 1
  31   17   48 1
  32   18   19 2
  33   18   21 am
  34   20   38 1
  35   21   22 1
  36   21   23 1
  37   22   26 1
  38   22   49 1
  39   22   50 1
  40   23   24 1
  41   23   51 1
  42   23   52 1
  43   24   25 1
  44   24   53 1
  45   24   54 1
  46   25   26 1
  47   25   27 1
  48   25   35 1
  49   26   55 1
  50   26   56 1
  51   27   28 ar
  52   27   32 ar
  53   28   29 ar
  54   28   57 1
  55   29   30 ar
  56   29   58 1
  57   30   31 ar
  58   30   59 1
  59   31   32 ar
  60   31   60 1
  61   32   61 1
  62   35   36 am
  63   35   37 2
  64   36   62 1
  65   36   63 1
  66   38   39 1
  67   38   64 1
  68   38   65 1
  69   39   40 1
  70   39   66 1
  71   39   67 1
  72   40   68 1
  73   40   69 1

#	End of record

