#	Name: ASD00100039
#	Creating user name:	WinNT
#	Creation time:	15. 06. 2019 18:30

#	Modifying user name:	WinNT
#	Modification time:	15. 06. 2019 18:30

#	Program:	/corina/corina34_cracker 3.40 0067  02.08.2006

@<TRIPOS>MOLECULE
ASD00100039
  65   69    0    0    0
SMALL
NO_CHARGES


@<TRIPOS>ATOM
   1 O1            -0.0143     1.2047     0.0087 O.3     
   2 N2             0.0021    -0.0041     0.0020 N.2     
   3 C3             1.2152    -0.4747    -0.0121 C.2     
   4 C4             2.0809     0.6416    -0.0144 C.2     
   5 C5             1.2318     1.7144    -0.0005 C.2     
   6 C6             1.6061     3.1413     0.0029 C.2     
   7 O7             2.7788     3.4622    -0.0070 O.2     
   8 N8             0.6481     4.0892     0.0168 N.am    
   9 C9             1.0198     5.5063     0.0202 C.3     
  10 C10           -0.1212     6.3342    -0.5743 C.3     
  11 C11            0.2670     7.8142    -0.5708 C.3     
  12 C12            0.5319     8.2685     0.8659 C.3     
  13 C13            1.6730     7.4406     1.4604 C.3     
  14 C14            1.2848     5.9606     1.4569 C.3     
  15 C15            0.9201     9.7484     0.8694 C.3     
  16 C16            1.0636    10.2347     2.3130 C.3     
  17 N17            1.4363    11.6556     2.3163 N.3     
  18 C18            1.3527    12.2184     3.6701 C.3     
  19 C19            1.6048    13.7268     3.6134 C.3     
  20 C20            2.9915    13.9855     3.0176 C.3     
  21 C21            3.0683    13.3476     1.6277 C.3     
  22 C22            2.7737    11.8502     1.7420 C.3     
  23 O23            2.9976    17.5845     2.3334 O.3     
  24 C24            2.4937    16.3456     2.1969 C.2     
  25 C25            3.2216    15.4704     2.9037 C.2     
  26 C26            4.2880    16.2490     3.5450 C.ar    
  27 C27            4.0803    17.5774     3.1371 C.ar    
  28 C28            5.3492    15.9345     4.3921 C.ar    
  29 C29            6.1924    16.9336     4.8264 C.ar    
  30 C30            5.9879    18.2453     4.4240 C.ar    
  31 C31            4.9420    18.5695     3.5865 C.ar    
  32 C32            1.6179    -1.9268    -0.0230 C.3     
  33 H33            3.1608     0.6469    -0.0243 H       
  34 H34           -0.2875     3.8332     0.0247 H       
  35 H35            1.9205     5.6471    -0.5774 H       
  36 H36           -0.3100     6.0105    -1.5979 H       
  37 H37           -1.0219     6.1934     0.0232 H       
  38 H38            1.1676     7.9549    -1.1684 H       
  39 H39           -0.5459     8.4040    -0.9944 H       
  40 H40           -0.3687     8.1277     1.4635 H       
  41 H41            2.5737     7.5814     0.8629 H       
  42 H42            1.8618     7.7643     2.4840 H       
  43 H43            0.3841     5.8198     2.0545 H       
  44 H44            2.0977     5.3708     1.8805 H       
  45 H45            1.8681     9.8766     0.3469 H       
  46 H46            0.1465    10.3282     0.3659 H       
  47 H47            0.1156    10.1065     2.8354 H       
  48 H48            1.8372     9.6549     2.8165 H       
  49 H49            0.3604    12.0313     4.0806 H       
  50 H50            2.1031    11.7484     4.3058 H       
  51 H51            0.8466    14.1993     2.9889 H       
  52 H52            1.5582    14.1417     4.6202 H       
  53 H53            3.7527    13.5464     3.6625 H       
  54 H54            2.3331    13.8141     0.9721 H       
  55 H55            4.0672    13.4916     1.2160 H       
  56 H56            3.5174    11.3819     2.3868 H       
  57 H57            2.8136    11.3956     0.7522 H       
  58 H58            1.6275    16.0924     1.6034 H       
  59 H59            5.5094    14.9137     4.7064 H       
  60 H60            7.0158    16.6947     5.4831 H       
  61 H61            6.6549    19.0208     4.7709 H       
  62 H62            4.7930    19.5943     3.2799 H       
  63 H63            1.7054    -2.2719    -1.0532 H       
  64 H64            2.5774    -2.0416     0.4813 H       
  65 H65            0.8622    -2.5173     0.4950 H       
@<TRIPOS>BOND
   1    1    2 1
   2    1    5 1
   3    2    3 2
   4    3    4 1
   5    3   32 1
   6    4    5 2
   7    4   33 1
   8    5    6 1
   9    6    7 2
  10    6    8 am
  11    8    9 1
  12    8   34 1
  13    9   10 1
  14    9   14 1
  15    9   35 1
  16   10   11 1
  17   10   36 1
  18   10   37 1
  19   11   12 1
  20   11   38 1
  21   11   39 1
  22   12   13 1
  23   12   15 1
  24   12   40 1
  25   13   14 1
  26   13   41 1
  27   13   42 1
  28   14   43 1
  29   14   44 1
  30   15   16 1
  31   15   45 1
  32   15   46 1
  33   16   17 1
  34   16   47 1
  35   16   48 1
  36   17   18 1
  37   17   22 1
  38   18   19 1
  39   18   49 1
  40   18   50 1
  41   19   20 1
  42   19   51 1
  43   19   52 1
  44   20   21 1
  45   20   25 1
  46   20   53 1
  47   21   22 1
  48   21   54 1
  49   21   55 1
  50   22   56 1
  51   22   57 1
  52   23   24 1
  53   23   27 1
  54   24   25 2
  55   24   58 1
  56   25   26 1
  57   26   27 ar
  58   26   28 ar
  59   27   31 ar
  60   28   29 ar
  61   28   59 1
  62   29   30 ar
  63   29   60 1
  64   30   31 ar
  65   30   61 1
  66   31   62 1
  67   32   63 1
  68   32   64 1
  69   32   65 1

#	End of record

