#	Name: ASD01912569
#	Creating user name:	WinNT
#	Creation time:	15. 06. 2019 19:59

#	Modifying user name:	WinNT
#	Modification time:	15. 06. 2019 19:59

#	Program:	/corina/corina34_cracker 3.40 0067  02.08.2006

@<TRIPOS>MOLECULE
ASD01912569
  53   56    0    0    0
SMALL
NO_CHARGES


@<TRIPOS>ATOM
   1 C1            -0.0187     1.5272     0.0104 C.3     
   2 C2             0.0021    -0.0041     0.0020 C.3     
   3 C3             1.4179     2.0529    -0.0005 C.3     
   4 C4             2.1379     1.5713    -1.2613 C.3     
   5 C5             2.1667     0.0402    -1.2748 C.3     
   6 C6             0.7436    -0.4980    -1.2321 C.3     
   7 C7             0.7498    -2.0384    -1.2751 C.3     
   8 C8             0.5712    -2.3246    -2.7554 C.2     
   9 N9             0.1743    -1.2342    -3.3337 N.2     
  10 O10            0.0306    -0.1550    -2.4288 O.3     
  11 O11            1.4075     3.4854     0.0318 O.3     
  12 C12            2.1167     3.8918     1.2199 C.3     
  13 C13            2.9867     2.6532     1.5498 C.3     
  14 O14            2.1122     1.5669     1.1603 O.3     
  15 C15            0.8014    -3.5817    -3.4014 C.1     
  16 C16            0.9901    -4.6123    -3.9310 C.1     
  17 C17            1.2203    -5.8694    -4.5770 C.ar    
  18 C18            1.0171    -5.9993    -5.9540 C.ar    
  19 C19            1.6549    -6.9718    -3.8346 C.ar    
  20 C20            1.8743    -8.1789    -4.4637 C.ar    
  21 C21            1.6655    -8.3011    -5.8265 C.ar    
  22 C22            1.2409    -7.2133    -6.5689 C.ar    
  23 C23            1.0164    -7.3572    -8.0522 C.3     
  24 C24            1.3275    -8.7934    -8.4781 C.3     
  25 C25           -0.4420    -7.0322    -8.3812 C.3     
  26 C26            1.9360    -6.3921    -8.8031 C.3     
  27 H27           -0.5451     1.8888    -0.8729 H       
  28 H28           -0.5281     1.8792     0.9075 H       
  29 H29            0.5074    -0.3651     0.8978 H       
  30 H30           -1.0206    -0.3808    -0.0140 H       
  31 H31            1.6088     1.9330    -2.1430 H       
  32 H32            3.1584     1.9544    -1.2663 H       
  33 H33            2.6583    -0.3056    -2.1841 H       
  34 H34            2.7172    -0.3201    -0.4057 H       
  35 H35            1.7008    -2.4321    -0.9165 H       
  36 H36           -0.0812    -2.4454    -0.6989 H       
  37 H37            2.7438     4.7598     1.0162 H       
  38 H38            1.4201     4.1006     2.0319 H       
  39 H39            3.9013     2.6496     0.9567 H       
  40 H40            3.2140     2.6084     2.6149 H       
  41 H41            0.6854    -5.1512    -6.5346 H       
  42 H42            1.8187    -6.8778    -2.7712 H       
  43 H43            2.2104    -9.0311    -3.8917 H       
  44 H44            1.8390    -9.2493    -6.3137 H       
  45 H45            0.6724    -9.4810    -7.9431 H       
  46 H46            1.1651    -8.8975    -9.5509 H       
  47 H47            2.3665    -9.0250    -8.2437 H       
  48 H48           -0.6636    -6.0090    -8.0777 H       
  49 H49           -0.6043    -7.1362    -9.4540 H       
  50 H50           -1.0971    -7.7198    -7.8462 H       
  51 H51            2.9750    -6.6236    -8.5687 H       
  52 H52            1.7736    -6.4961    -9.8759 H       
  53 H53            1.7144    -5.3689    -8.4996 H       
@<TRIPOS>BOND
   1    1    2 1
   2    1    3 1
   3    1   27 1
   4    1   28 1
   5    2    6 1
   6    2   29 1
   7    2   30 1
   8    3    4 1
   9    3   11 1
  10    3   14 1
  11    4    5 1
  12    4   31 1
  13    4   32 1
  14    5    6 1
  15    5   33 1
  16    5   34 1
  17    6    7 1
  18    6   10 1
  19    7    8 1
  20    7   35 1
  21    7   36 1
  22    8    9 2
  23    8   15 1
  24    9   10 1
  25   11   12 1
  26   12   13 1
  27   12   37 1
  28   12   38 1
  29   13   14 1
  30   13   39 1
  31   13   40 1
  32   15   16 3
  33   16   17 1
  34   17   18 ar
  35   17   19 ar
  36   18   22 ar
  37   18   41 1
  38   19   20 ar
  39   19   42 1
  40   20   21 ar
  41   20   43 1
  42   21   22 ar
  43   21   44 1
  44   22   23 1
  45   23   24 1
  46   23   25 1
  47   23   26 1
  48   24   45 1
  49   24   46 1
  50   24   47 1
  51   25   48 1
  52   25   49 1
  53   25   50 1
  54   26   51 1
  55   26   52 1
  56   26   53 1

#	End of record

