#	Name: ASD03331481
#	Creating user name:	WinNT
#	Creation time:	15. 06. 2019 20:39

#	Modifying user name:	WinNT
#	Modification time:	15. 06. 2019 20:39

#	Program:	/corina/corina34_cracker 3.40 0067  02.08.2006

@<TRIPOS>MOLECULE
ASD03331481
  64   67    0    0    0
SMALL
NO_CHARGES


@<TRIPOS>ATOM
   1 C1             0.6461     0.9686     1.7704 C.ar    
   2 C2             0.5124    -0.4510     1.3769 C.2     
   3 N3            -0.5447    -1.2566     1.6595 N.pl3   
   4 C4            -0.2787    -2.4841     1.1261 C.2     
   5 C5             0.9340    -2.4053     0.5247 C.2     
   6 N6             1.3936    -1.1436     0.6903 N.2     
   7 C7             1.6242    -3.4957    -0.1867 C.2     
   8 N8             2.8332    -3.2792    -0.7415 N.am    
   9 C9            -0.1819     1.5018     2.7586 C.ar    
  10 O10            1.1029    -4.5911    -0.2731 O.2     
  11 C11            3.5195    -4.3632    -1.4486 C.3     
  12 C12            3.0280    -4.4191    -2.8965 C.3     
  13 C13            5.0054    -4.1125    -1.4318 C.2     
  14 C14            3.2385    -3.0563    -3.5594 C.3     
  15 C15           -1.7758    -0.9429     2.3900 C.3     
  16 C16           -2.8072    -2.0359     2.0810 C.3     
  17 N17           -2.2046    -3.3610     2.2822 N.3     
  18 C18           -1.2137    -3.6610     1.2328 C.3     
  19 C19            3.8148    -5.4853    -3.6614 C.3     
  20 O20            5.4298    -2.9978    -1.2119 O.2     
  21 N21            5.8626    -5.1268    -1.6613 N.am    
  22 C22           -0.0527     2.8282     3.1221 C.ar    
  23 C23            0.8984     3.6287     2.5053 C.ar    
  24 C24            1.7218     3.1022     1.5233 C.ar    
  25 C25            1.6047     1.7772     1.1584 C.ar    
  26 F26            1.0215     4.9256     2.8632 F       
  27 F27           -0.8533     3.3467     4.0788 F       
  28 C28            7.3059    -4.9082    -1.5378 C.3     
  29 C29           -3.2366    -4.4045     2.3455 C.3     
  30 C30           -4.0105    -1.8776     3.0126 C.3     
  31 C31            8.1805    -6.1243    -1.2259 C.3     
  32 C32            8.2058    -5.5020    -2.6234 C.3     
  33 C33            1.5393    -4.7715    -2.9165 C.3     
  34 H34            3.2490    -2.4055    -0.6725 H       
  35 H35           -0.9225     0.8790     3.2381 H       
  36 H36            3.3054    -5.3114    -0.9555 H       
  37 H37            4.2991    -2.8053    -3.5452 H       
  38 H38            2.8883    -3.0961    -4.5909 H       
  39 H39            2.6779    -2.2967    -3.0145 H       
  40 H40           -1.5727    -0.9210     3.4607 H       
  41 H41           -2.1583     0.0255     2.0676 H       
  42 H42           -3.1366    -1.9410     1.0463 H       
  43 H43           -1.7209    -3.8162     0.2805 H       
  44 H44           -0.6515    -4.5553     1.5017 H       
  45 H45            3.6771    -6.4535    -3.1801 H       
  46 H46            3.4542    -5.5357    -4.6888 H       
  47 H47            4.8735    -5.2262    -3.6602 H       
  48 H48            5.5239    -6.0016    -1.9081 H       
  49 H49            2.4600     3.7294     1.0458 H       
  50 H50            2.2475     1.3686     0.3928 H       
  51 H51            7.6014    -3.9519    -1.1063 H       
  52 H52           -3.8005    -4.4150     1.4127 H       
  53 H53           -2.7634    -5.3750     2.4948 H       
  54 H54           -3.9118    -4.1979     3.1759 H       
  55 H55           -4.4620    -0.8975     2.8596 H       
  56 H56           -4.7439    -2.6537     2.7939 H       
  57 H57           -3.6827    -1.9690     4.0481 H       
  58 H58            9.0515    -5.9679    -0.5895 H       
  59 H59            7.6820    -7.0870    -1.1126 H       
  60 H60            7.7239    -6.0553    -3.4295 H       
  61 H61            9.0934    -4.9363    -2.9064 H       
  62 H62            0.9787    -4.0119    -2.3715 H       
  63 H63            1.1891    -4.8112    -3.9479 H       
  64 H64            1.3893    -5.7423    -2.4442 H       
@<TRIPOS>BOND
   1    1    2 1
   2    1    9 ar
   3    1   25 ar
   4    2    3 1
   5    2    6 2
   6    3    4 1
   7    3   15 1
   8    4    5 2
   9    4   18 1
  10    5    6 1
  11    5    7 1
  12    7    8 am
  13    7   10 2
  14    8   11 1
  15    8   34 1
  16    9   22 ar
  17    9   35 1
  18   11   12 1
  19   11   13 1
  20   11   36 1
  21   12   14 1
  22   12   19 1
  23   12   33 1
  24   13   20 2
  25   13   21 am
  26   14   37 1
  27   14   38 1
  28   14   39 1
  29   15   16 1
  30   15   40 1
  31   15   41 1
  32   16   17 1
  33   16   30 1
  34   16   42 1
  35   17   18 1
  36   17   29 1
  37   18   43 1
  38   18   44 1
  39   19   45 1
  40   19   46 1
  41   19   47 1
  42   21   28 1
  43   21   48 1
  44   22   23 ar
  45   22   27 1
  46   23   24 ar
  47   23   26 1
  48   24   25 ar
  49   24   49 1
  50   25   50 1
  51   28   31 1
  52   28   32 1
  53   28   51 1
  54   29   52 1
  55   29   53 1
  56   29   54 1
  57   30   55 1
  58   30   56 1
  59   30   57 1
  60   31   32 1
  61   31   58 1
  62   31   59 1
  63   32   60 1
  64   32   61 1
  65   33   62 1
  66   33   63 1
  67   33   64 1

#	End of record

