#	Name: ASD01918185
#	Creating user name:	WinNT
#	Creation time:	15. 06. 2019 20:10

#	Modifying user name:	WinNT
#	Modification time:	15. 06. 2019 20:10

#	Program:	/corina/corina34_cracker 3.40 0067  02.08.2006

@<TRIPOS>MOLECULE
ASD01918185
  40   41    0    0    0
SMALL
NO_CHARGES


@<TRIPOS>ATOM
   1 N1             0.0421     1.3150     0.1316 N.ar    
   2 C2             0.0692    -0.0012     0.1433 C.ar    
   3 C3             1.2706    -0.6877     0.1636 C.ar    
   4 C4             2.4623     0.0237     0.1719 C.ar    
   5 C5             2.4068     1.4062     0.1593 C.ar    
   6 C6             1.1594     2.0345     0.1389 C.ar    
   7 N7             1.0875     3.4000     0.1263 N.2     
   8 N8            -0.0620     3.9852     0.1074 N.2     
   9 C9            -0.1337     5.3468     0.0948 C.ar    
  10 C10           -1.4470     7.3624     0.0680 C.ar    
  11 C11           -1.3798     5.9832     0.0802 C.ar    
  12 C12            1.0386     6.1110     0.1023 C.ar    
  13 C13            0.9643     7.4861     0.0901 C.ar    
  14 C14           -0.2736     8.1183     0.0702 C.ar    
  15 O15           -2.6562     7.9841     0.0537 O.3     
  16 C16           -3.8154     7.1484     0.0523 C.3     
  17 N17           -0.3434     9.5135     0.0583 N.am    
  18 C18            0.6797    10.2351    -0.4405 C.2     
  19 O19            1.6900     9.6774    -0.8137 O.2     
  20 C20            0.5685    11.7351    -0.5346 C.3     
  21 C21            0.3510    12.3190     0.8628 C.3     
  22 C22            1.8568    12.3057    -1.1309 C.3     
  23 H23           -0.8592    -0.5529     0.1372 H       
  24 H24            1.2808    -1.7676     0.1734 H       
  25 H25            3.4120    -0.4904     0.1881 H       
  26 H26            3.3147     1.9910     0.1655 H       
  27 H27           -2.2870     5.3971     0.0781 H       
  28 H28            2.0016     5.6224     0.1181 H       
  29 H29            1.8698     8.0746     0.0963 H       
  30 H30           -3.8030     6.5116    -0.8322 H       
  31 H31           -3.8162     6.5267     0.9476 H       
  32 H32           -4.7110     7.7695     0.0404 H       
  33 H33           -1.1283     9.9628     0.4090 H       
  34 H34           -0.2749    11.9975    -1.1733 H       
  35 H35            1.1943    12.0565     1.5016 H       
  36 H36            0.2705    13.4039     0.7948 H       
  37 H37           -0.5668    11.9125     1.2876 H       
  38 H38            2.0117    11.8897    -2.1264 H       
  39 H39            1.7763    13.3905    -1.1989 H       
  40 H40            2.7001    12.0432    -0.4921 H       
@<TRIPOS>BOND
   1    1    2 ar
   2    1    6 ar
   3    2    3 ar
   4    2   23 1
   5    3    4 ar
   6    3   24 1
   7    4    5 ar
   8    4   25 1
   9    5    6 ar
  10    5   26 1
  11    6    7 1
  12    7    8 2
  13    8    9 1
  14    9   12 ar
  15    9   11 ar
  16   10   11 ar
  17   10   14 ar
  18   10   15 1
  19   11   27 1
  20   12   13 ar
  21   12   28 1
  22   13   14 ar
  23   13   29 1
  24   14   17 1
  25   15   16 1
  26   16   30 1
  27   16   31 1
  28   16   32 1
  29   17   18 am
  30   17   33 1
  31   18   19 2
  32   18   20 1
  33   20   21 1
  34   20   22 1
  35   20   34 1
  36   21   35 1
  37   21   36 1
  38   21   37 1
  39   22   38 1
  40   22   39 1
  41   22   40 1

#	End of record

