#	Name: ASD02040002
#	Creating user name:	WinNT
#	Creation time:	15. 06. 2019 20:18

#	Modifying user name:	WinNT
#	Modification time:	15. 06. 2019 20:18

#	Program:	/corina/corina34_cracker 3.40 0067  02.08.2006

@<TRIPOS>MOLECULE
ASD02040002
  53   55    0    0    0
SMALL
NO_CHARGES


@<TRIPOS>ATOM
   1 P1            -0.0180     1.4758     0.0102 P.3     
   2 O2             0.0021    -0.0041     0.0020 O.2     
   3 O3             1.4924     2.0330    -0.0013 O.3     
   4 O4            -0.7967     2.0091    -1.2942 O.3     
   5 O5            -0.7716     1.9950     1.3348 O.3     
   6 P6            -0.8355     1.5534    -2.8378 P.3     
   7 O7            -0.9571     0.0804    -2.9145 O.2     
   8 O8            -2.0988     2.2349    -3.5670 O.3     
   9 O9             0.5214     2.0186    -3.5690 O.3     
  10 O10           -1.4695     1.3258     4.7416 O.3     
  11 C11           -1.5502     0.8848     3.3687 C.3     
  12 C12           -0.3850     1.6043     2.6538 C.3     
  13 C13           -0.1175     2.8482     3.5304 C.3     
  14 C14           -1.1528     2.7332     4.6712 C.3     
  15 C15           -1.3709    -0.6323     3.2851 C.3     
  16 O16           -2.4795    -1.2784     3.9142 O.3     
  17 P17           -2.6215    -2.8791     4.0118 P.3     
  18 O18           -1.4114    -3.4437     4.6501 O.2     
  19 O19           -3.9162    -3.2502     4.8939 O.3     
  20 P20           -4.3851    -4.5668     5.6932 P.3     
  21 O21           -3.2456    -5.1044     6.4697 O.2     
  22 O22           -5.5860    -4.1866     6.6959 O.3     
  23 O23           -4.8925    -5.6786     4.6452 O.3     
  24 O24           -2.7851    -3.4946     2.5332 O.3     
  25 O25           -0.3308     4.0452     2.7795 O.3     
  26 N26            0.4529     3.1481     7.8582 N.2     
  27 C27            0.0644     2.4101     6.8582 C.2     
  28 N28           -0.5708     3.1889     5.9360 N.pl3   
  29 C29           -0.5653     4.4664     6.4050 C.2     
  30 N30           -1.0388     5.6667     5.9411 N.pl3   
  31 C31           -0.8704     6.8026     6.6674 C.2     
  32 N32           -0.2572     6.8134     7.8314 N.2     
  33 C33            0.2404     5.6889     8.3692 C.2     
  34 C34            0.0890     4.4315     7.6305 C.2     
  35 O35            0.8077     5.7126     9.4502 O.2     
  36 N36           -1.3570     7.9812     6.1686 N.pl3   
  37 H37            1.5557     2.9980     0.0033 H       
  38 H38           -2.1850     2.0039    -4.5021 H       
  39 H39            0.6667     2.9745    -3.5573 H       
  40 H40           -2.5039     1.1797     2.9309 H       
  41 H41            0.4964     0.9638     2.6206 H       
  42 H42            0.8961     2.8227     3.9306 H       
  43 H43           -2.0455     3.3115     4.4331 H       
  44 H44           -1.3196    -0.9351     2.2393 H       
  45 H45           -0.4489    -0.9176     3.7916 H       
  46 H46           -5.9192    -4.9337     7.2116 H       
  47 H47           -5.6395    -5.3942     4.1009 H       
  48 H48           -3.5595    -3.1681     2.0547 H       
  49 H49           -0.1769     4.8571     3.2816 H       
  50 H50            0.2215     1.3451     6.7719 H       
  51 H51           -1.4974     5.7053     5.0872 H       
  52 H52           -1.8119     7.9943     5.3120 H       
  53 H53           -1.2469     8.8031     6.6719 H       
@<TRIPOS>BOND
   1    1    2 2
   2    1    3 1
   3    1    4 1
   4    1    5 1
   5    3   37 1
   6    4    6 1
   7    5   12 1
   8    6    7 2
   9    6    8 1
  10    6    9 1
  11    8   38 1
  12    9   39 1
  13   10   11 1
  14   10   14 1
  15   11   12 1
  16   11   15 1
  17   11   40 1
  18   12   13 1
  19   12   41 1
  20   13   14 1
  21   13   25 1
  22   13   42 1
  23   14   28 1
  24   14   43 1
  25   15   16 1
  26   15   44 1
  27   15   45 1
  28   16   17 1
  29   17   18 2
  30   17   19 1
  31   17   24 1
  32   19   20 1
  33   20   21 2
  34   20   22 1
  35   20   23 1
  36   22   46 1
  37   23   47 1
  38   24   48 1
  39   25   49 1
  40   26   27 2
  41   26   34 1
  42   27   28 1
  43   27   50 1
  44   28   29 1
  45   29   30 1
  46   29   34 2
  47   30   31 1
  48   30   51 1
  49   31   32 2
  50   31   36 1
  51   32   33 1
  52   33   34 1
  53   33   35 2
  54   36   52 1
  55   36   53 1

#	End of record

