#	Name: ASD02038519
#	Creating user name:	WinNT
#	Creation time:	15. 06. 2019 20:16

#	Modifying user name:	WinNT
#	Modification time:	15. 06. 2019 20:16

#	Program:	/corina/corina34_cracker 3.40 0067  02.08.2006

@<TRIPOS>MOLECULE
ASD02038519
  51   54    0    0    0
SMALL
NO_CHARGES


@<TRIPOS>ATOM
   1 Cl1            7.5559     4.0290     0.2490 Cl      
   2 C2             0.6609    -0.0190     1.3142 C.3     
   3 N3             0.0020    -0.0042     0.0007 N.3     
   4 C4            -1.3592    -0.5495     0.0884 C.3     
   5 C5            -1.2915    -2.0737     0.2029 C.3     
   6 C6            -2.6997    -2.6320     0.4179 C.3     
   7 O7            -2.6245    -4.0414     0.6410 O.3     
   8 C8            -3.7972    -4.6967     0.8511 C.ar    
   9 C9            -3.7944    -6.0644     1.0737 C.ar    
  10 C10           -4.9940    -3.9927     0.8476 C.ar    
  11 C11           -6.1889    -4.6518     1.0608 C.ar    
  12 C12           -6.1940    -6.0207     1.2785 C.ar    
  13 C13           -0.0095     1.3524    -0.5642 C.3     
  14 C14            1.4293     1.8526    -0.7125 C.3     
  15 N15            2.0882     1.8378     0.6010 N.3     
  16 C16            3.3831     2.3565     0.5176 C.ar    
  17 C17            4.1776     2.4305     1.6545 C.ar    
  18 C18            5.4569     2.9437     1.5692 C.ar    
  19 C19            5.9475     3.3840     0.3525 C.ar    
  20 C20            5.1582     3.3115    -0.7819 C.ar    
  21 C21            3.8801     2.7939    -0.7035 C.ar    
  22 C22           -4.9912    -6.7302     1.2876 C.ar    
  23 O23           -0.7418    -2.6178    -0.9987 O.3     
  24 C24            2.0998     0.4812     1.1659 C.3     
  25 N25           -7.2093    -6.9470     1.5177 N.am    
  26 C26           -6.6483    -8.1627     1.6596 C.2     
  27 N27           -5.3122    -8.0642     1.5269 N.am    
  28 O28           -7.2566    -9.1937     1.8785 O.2     
  29 H29            0.1187     0.6315     2.0004 H       
  30 H30            0.6681    -1.0362     1.7060 H       
  31 H31           -1.8584    -0.1409     0.9670 H       
  32 H32           -1.9182    -0.2769    -0.8068 H       
  33 H33           -0.6595    -2.3469     1.0479 H       
  34 H34           -3.1530    -2.1507     1.2846 H       
  35 H35           -3.3072    -2.4359    -0.4656 H       
  36 H36           -2.8624    -6.6101     1.0801 H       
  37 H37           -4.9905    -2.9262     0.6780 H       
  38 H38           -7.1180    -4.1013     1.0582 H       
  39 H39           -0.4911     1.3352    -1.5419 H       
  40 H40           -0.5593     2.0186     0.1007 H       
  41 H41            1.9716     1.2021    -1.3987 H       
  42 H42            1.4222     2.8698    -1.1043 H       
  43 H43            3.7951     2.0874     2.6044 H       
  44 H44            6.0750     3.0018     2.4530 H       
  45 H45            5.5434     3.6561    -1.7301 H       
  46 H46            3.2647     2.7372    -1.5891 H       
  47 H47           -1.2540    -2.4138    -1.7931 H       
  48 H48            2.5814     0.4984     2.1436 H       
  49 H49            2.6496    -0.1849     0.5010 H       
  50 H50           -8.1573    -6.7490     1.5727 H       
  51 H51           -4.6806    -8.7979     1.5864 H       
@<TRIPOS>BOND
   1    1   19 1
   2    2    3 1
   3    2   24 1
   4    2   29 1
   5    2   30 1
   6    3    4 1
   7    3   13 1
   8    4    5 1
   9    4   31 1
  10    4   32 1
  11    5    6 1
  12    5   23 1
  13    5   33 1
  14    6    7 1
  15    6   34 1
  16    6   35 1
  17    7    8 1
  18    8    9 ar
  19    8   10 ar
  20    9   22 ar
  21    9   36 1
  22   10   11 ar
  23   10   37 1
  24   11   12 ar
  25   11   38 1
  26   12   22 ar
  27   12   25 1
  28   13   14 1
  29   13   39 1
  30   13   40 1
  31   14   15 1
  32   14   41 1
  33   14   42 1
  34   15   16 1
  35   15   24 1
  36   16   17 ar
  37   16   21 ar
  38   17   18 ar
  39   17   43 1
  40   18   19 ar
  41   18   44 1
  42   19   20 ar
  43   20   21 ar
  44   20   45 1
  45   21   46 1
  46   22   27 1
  47   23   47 1
  48   24   48 1
  49   24   49 1
  50   25   26 am
  51   25   50 1
  52   26   27 am
  53   26   28 2
  54   27   51 1

#	End of record

