#	Name: ASD02190006
#	Creating user name:	WinNT
#	Creation time:	15. 06. 2019 20:18

#	Modifying user name:	WinNT
#	Modification time:	15. 06. 2019 20:18

#	Program:	/corina/corina34_cracker 3.40 0067  02.08.2006

@<TRIPOS>MOLECULE
ASD02190006
  48   50    0    0    0
SMALL
NO_CHARGES


@<TRIPOS>ATOM
   1 C1            -0.0370     1.5328     0.0058 C.3     
   2 C2             2.0208     2.3639     1.1837 C.ar    
   3 N3             3.2549     2.8413     1.1442 N.ar    
   4 C4             3.8673     3.0524    -0.0128 C.ar    
   5 N5             3.2742     2.7963    -1.1702 N.ar    
   6 C6             2.0361     2.3157    -1.2043 C.ar    
   7 C7             1.3680     2.0779    -0.0009 C.ar    
   8 N8             1.4180     2.0487    -2.4170 N.pl3   
   9 C9             2.0457     2.3968    -3.6094 C.ar    
  10 C10            1.8659     1.6105    -4.7441 C.ar    
  11 C11            2.4846     1.9520    -5.9248 C.ar    
  12 C12            3.2947     3.0903    -5.9841 C.ar    
  13 C13            3.4730     3.8780    -4.8424 C.ar    
  14 C14            2.8472     3.5336    -3.6663 C.ar    
  15 C15            5.2500     3.5888    -0.0119 C.ar    
  16 C16            5.9121     3.8181    -1.2165 C.ar    
  17 C17            7.1989     4.3174    -1.2096 C.ar    
  18 C18            7.8314     4.5896    -0.0102 C.ar    
  19 C19            7.1791     4.3636     1.1888 C.ar    
  20 C20            5.8901     3.8709     1.1938 C.ar    
  21 C21            0.0086     0.0267     0.0316 C.2     
  22 C22           -0.6237    -0.6317     0.9711 C.2     
  23 C23            1.3371     2.1290     2.5060 C.3     
  24 C24            7.8753     4.6618     2.4916 C.3     
  25 C25            3.9594     3.4590    -7.2471 C.2     
  26 O26            3.8038     2.7734    -8.2382 O.2     
  27 O27            4.7397     4.5563    -7.3025 O.3     
  28 H28           -0.5633     1.8956     0.8887 H       
  29 H29           -0.5599     1.8651    -0.8910 H       
  30 H30            0.5484     1.6194    -2.4339 H       
  31 H31            1.2405     0.7312    -4.6975 H       
  32 H32            2.3450     1.3413    -6.8046 H       
  33 H33            4.0980     4.7577    -4.8848 H       
  34 H34            2.9845     4.1415    -2.7842 H       
  35 H35            5.4194     3.6051    -2.1537 H       
  36 H36            7.7129     4.4954    -2.1426 H       
  37 H37            8.8384     4.9799    -0.0095 H       
  38 H38            5.3819     3.6948     2.1303 H       
  39 H39            0.5627    -0.5098    -0.7244 H       
  40 H40           -0.5910    -1.7111     0.9896 H       
  41 H41           -1.1777    -0.0952     1.7272 H       
  42 H42            0.8010     3.0304     2.8030 H       
  43 H43            0.6329     1.3027     2.4091 H       
  44 H44            2.0829     1.8841     3.2622 H       
  45 H45            7.6723     5.6919     2.7846 H       
  46 H46            7.5077     3.9854     3.2632 H       
  47 H47            8.9496     4.5239     2.3694 H       
  48 H48            5.1545     4.7575    -8.1526 H       
@<TRIPOS>BOND
   1    1   21 1
   2    1    7 1
   3    1   28 1
   4    1   29 1
   5    2    3 ar
   6    2   23 1
   7    2    7 ar
   8    3    4 ar
   9    4    5 ar
  10    4   15 1
  11    5    6 ar
  12    6    7 ar
  13    6    8 1
  14    8    9 1
  15    8   30 1
  16    9   10 ar
  17    9   14 ar
  18   10   11 ar
  19   10   31 1
  20   11   12 ar
  21   11   32 1
  22   12   13 ar
  23   12   25 1
  24   13   14 ar
  25   13   33 1
  26   14   34 1
  27   15   16 ar
  28   15   20 ar
  29   16   17 ar
  30   16   35 1
  31   17   18 ar
  32   17   36 1
  33   18   19 ar
  34   18   37 1
  35   19   20 ar
  36   19   24 1
  37   20   38 1
  38   21   22 2
  39   21   39 1
  40   22   40 1
  41   22   41 1
  42   23   42 1
  43   23   43 1
  44   23   44 1
  45   24   45 1
  46   24   46 1
  47   24   47 1
  48   25   26 2
  49   25   27 1
  50   27   48 1

#	End of record

