#	Name: ASD02500034
#	Creating user name:	WinNT
#	Creation time:	15. 06. 2019 20:22

#	Modifying user name:	WinNT
#	Modification time:	15. 06. 2019 20:22

#	Program:	/corina/corina34_cracker 3.40 0067  02.08.2006

@<TRIPOS>MOLECULE
ASD02500034
  61   65    0    0    0
SMALL
NO_CHARGES


@<TRIPOS>ATOM
   1 C1             0.2114    -0.5781     2.1731 C.ar    
   2 C2             0.6096    -1.8848     1.9242 C.ar    
   3 C3             1.8470    -2.1195     1.3599 C.ar    
   4 N4             2.6547    -1.1207     1.0550 N.ar    
   5 C5             2.3156     0.1390     1.2751 C.ar    
   6 C6             1.0796     0.4518     1.8425 C.ar    
   7 N7             3.1991     1.1611     0.9378 N.3     
   8 C8             4.4349     0.6186     0.3578 C.3     
   9 C9             5.2993     1.7714    -0.1640 C.3     
  10 N10            5.4963     2.7383     0.9267 N.am    
  11 C11            4.3106     3.2243     1.6485 C.3     
  12 C12            3.4851     2.0143     2.0989 C.3     
  13 C13            6.7307     3.1680     1.2556 C.2     
  14 O14            7.7074     2.6766     0.7235 O.2     
  15 C15            6.8968     4.2346     2.2611 C.ar    
  16 C16            7.9593     4.1828     3.1681 C.ar    
  17 C17            8.1116     5.1792     4.1049 C.ar    
  18 C18            7.2089     6.2381     4.1500 C.ar    
  19 C19            6.1497     6.2926     3.2481 C.ar    
  20 C20            5.9954     5.3022     2.3052 C.ar    
  21 N21            7.3652     7.2432     5.0980 N.am    
  22 S22            7.2508     8.8323     4.6466 S.o2    
  23 O23            7.5677     9.6007     5.7992 O.2     
  24 C24            8.5340     9.1361     3.4779 C.ar    
  25 C25            9.8809     9.0450     3.8693 C.ar    
  26 C26           10.8951     9.2938     2.9114 C.ar    
  27 C27           10.5392     9.6250     1.5943 C.ar    
  28 C28            9.2235     9.7033     1.2523 C.ar    
  29 C29            8.2247     9.4545     2.1912 C.ar    
  30 O30            6.0251     8.9614     3.9393 O.2     
  31 N31           10.2147     8.7294     5.1248 N.ar    
  32 C32           11.4691     8.6435     5.4952 C.ar    
  33 C33           12.5145     8.8756     4.6037 C.ar    
  34 C34           12.2434     9.2020     3.3055 C.ar    
  35 O35            0.7317     1.7471     2.0685 O.3     
  36 C36           -0.5511     1.9819     2.6525 C.3     
  37 H37           -0.7538    -0.3684     2.6099 H       
  38 H38           -0.0427    -2.7098     2.1701 H       
  39 H39            2.1592    -3.1348     1.1652 H       
  40 H40            4.9845     0.0688     1.1218 H       
  41 H41            4.1868    -0.0514    -0.4654 H       
  42 H42            6.2652     1.3861    -0.4906 H       
  43 H43            4.7950     2.2585    -0.9985 H       
  44 H44            4.6227     3.7995     2.5202 H       
  45 H45            3.7113     3.8510     0.9882 H       
  46 H46            2.5482     2.3564     2.5384 H       
  47 H47            4.0479     1.4451     2.8387 H       
  48 H48            8.6597     3.3614     3.1339 H       
  49 H49            8.9320     5.1395     4.8062 H       
  50 H50            5.4509     7.1152     3.2857 H       
  51 H51            5.1738     5.3452     1.6055 H       
  52 H52            7.5412     7.0134     6.0238 H       
  53 H53           11.3045     9.8169     0.8568 H       
  54 H54            8.9506     9.9581     0.2388 H       
  55 H55            7.1883     9.5226     1.8952 H       
  56 H56           11.6986     8.3862     6.5187 H       
  57 H57           13.5381     8.7975     4.9389 H       
  58 H58           13.0413     9.3850     2.6010 H       
  59 H59           -1.3264     1.5800     2.0002 H       
  60 H60           -0.6033     1.4909     3.6243 H       
  61 H61           -0.7022     3.0540     2.7786 H       
@<TRIPOS>BOND
   1    1    2 ar
   2    1    6 ar
   3    1   37 1
   4    2    3 ar
   5    2   38 1
   6    3    4 ar
   7    3   39 1
   8    4    5 ar
   9    5    6 ar
  10    5    7 1
  11    6   35 1
  12    7    8 1
  13    7   12 1
  14    8    9 1
  15    8   40 1
  16    8   41 1
  17    9   10 1
  18    9   42 1
  19    9   43 1
  20   10   11 1
  21   10   13 am
  22   11   12 1
  23   11   44 1
  24   11   45 1
  25   12   46 1
  26   12   47 1
  27   13   14 2
  28   13   15 1
  29   15   16 ar
  30   15   20 ar
  31   16   17 ar
  32   16   48 1
  33   17   18 ar
  34   17   49 1
  35   18   19 ar
  36   18   21 1
  37   19   20 ar
  38   19   50 1
  39   20   51 1
  40   21   22 am
  41   21   52 1
  42   22   23 2
  43   22   24 1
  44   22   30 2
  45   24   25 ar
  46   24   29 ar
  47   25   26 ar
  48   25   31 ar
  49   26   27 ar
  50   26   34 ar
  51   27   28 ar
  52   27   53 1
  53   28   29 ar
  54   28   54 1
  55   29   55 1
  56   31   32 ar
  57   32   33 ar
  58   32   56 1
  59   33   34 ar
  60   33   57 1
  61   34   58 1
  62   35   36 1
  63   36   59 1
  64   36   60 1
  65   36   61 1

#	End of record

