#	Name: ASD03091587
#	Creating user name:	WinNT
#	Creation time:	15. 06. 2019 20:31

#	Modifying user name:	WinNT
#	Modification time:	15. 06. 2019 20:31

#	Program:	/corina/corina34_cracker 3.40 0067  02.08.2006

@<TRIPOS>MOLECULE
ASD03091587
  18   19    0    0    0
SMALL
NO_CHARGES


@<TRIPOS>ATOM
   1 O1            -0.0162     1.3452     0.0094 O.3     
   2 C2             0.0021    -0.0041     0.0020 C.2     
   3 C3             1.2875    -0.4450    -0.0126 C.2     
   4 C4             2.1266     0.7525    -0.0142 C.ar    
   5 C5             1.2370     1.8422     0.0001 C.ar    
   6 C6             1.7468     3.1372     0.0018 C.ar    
   7 C7             3.1113     3.3412    -0.0105 C.ar    
   8 C8             3.9898     2.2640    -0.0251 C.ar    
   9 C9             3.5066     0.9734    -0.0268 C.ar    
  10 C10           -1.1868    -0.8654     0.0092 C.2     
  11 O11           -1.0614    -2.0747     0.0019 O.2     
  12 O12           -2.4180    -0.3153     0.0238 O.3     
  13 F13            0.9058     4.1944     0.0150 F       
  14 F14            5.3228     2.4832    -0.0375 F       
  15 H15            1.6216    -1.4720    -0.0213 H       
  16 H16            3.5010     4.3484    -0.0092 H       
  17 H17            4.1903     0.1375    -0.0381 H       
  18 H18           -3.1703    -0.9228     0.0280 H       
@<TRIPOS>BOND
   1    1    2 1
   2    1    5 1
   3    2    3 2
   4    2   10 1
   5    3    4 1
   6    3   15 1
   7    4    5 ar
   8    4    9 ar
   9    5    6 ar
  10    6    7 ar
  11    6   13 1
  12    7    8 ar
  13    7   16 1
  14    8    9 ar
  15    8   14 1
  16    9   17 1
  17   10   11 2
  18   10   12 1
  19   12   18 1

#	End of record

