#	Name: ASD01708047
#	Creating user name:	WinNT
#	Creation time:	15. 06. 2019 19:22

#	Modifying user name:	WinNT
#	Modification time:	15. 06. 2019 19:22

#	Program:	/corina/corina34_cracker 3.40 0067  02.08.2006

@<TRIPOS>MOLECULE
ASD01708047
  73   77    0    0    0
SMALL
NO_CHARGES


@<TRIPOS>ATOM
   1 C1            -0.0162     1.3436     0.0094 C.2     
   2 N2            -0.0091    -0.0042     0.0041 N.am    
   3 O3             1.0335     1.9570     0.0192 O.2     
   4 C4             1.2464    -0.7631    -0.1210 C.3     
   5 C5            -1.2511    -0.7742     0.1288 C.3     
   6 C6            -1.0507    -1.9082     1.1036 C.ar    
   7 C7             0.1957    -2.2656     1.5707 C.ar    
   8 C8             1.4510    -1.5479     1.1736 C.3     
   9 C9            -2.1789    -2.5999     1.5280 C.ar    
  10 C10           -2.0696    -3.6518     2.4114 C.ar    
  11 C11           -0.8087    -4.0265     2.8840 C.ar    
  12 C12            0.3192    -3.3269     2.4576 C.ar    
  13 Cl13           1.8891    -3.7860     3.0391 Cl      
  14 Cl14          -3.4881    -4.5052     2.9340 Cl      
  15 C15           -0.6724    -5.1545     3.8275 C.2     
  16 N16           -0.7278    -4.9326     5.1557 N.am    
  17 O17           -0.5103    -6.2833     3.4061 O.2     
  18 C18           -0.5926    -6.0516     6.0916 C.3     
  19 C19           -1.9359    -6.7049     6.2908 C.2     
  20 O20           -2.0541    -7.7594     7.1129 O.3     
  21 O21           -2.9066    -6.2795     5.7106 O.2     
  22 C22           -1.2983     2.0749    -0.0027 C.ar    
  23 C23           -0.0733    -5.5335     7.4343 C.3     
  24 C24            1.3214    -4.9906     7.2579 C.ar    
  25 C25            1.5093    -3.6597     6.9342 C.ar    
  26 C26           -1.4171     3.2849     0.6943 C.ar    
  27 C27           -2.5970     3.9677     0.6896 C.ar    
  28 C28           -3.6926     3.4603    -0.0128 C.ar    
  29 C29           -3.5862     2.2468    -0.7170 C.ar    
  30 C30           -2.3824     1.5613    -0.7119 C.ar    
  31 C31           -5.0689     3.9169    -0.2266 C.2     
  32 C32           -5.6545     2.9917    -1.0024 C.2     
  33 O33           -4.7838     2.0104    -1.2908 O.3     
  34 C34            2.4128    -5.8219     7.4251 C.ar    
  35 C35            3.6923    -5.3239     7.2632 C.ar    
  36 C36            3.8800    -3.9948     6.9337 C.ar    
  37 C37            2.7884    -3.1618     6.7723 C.ar    
  38 C38            4.8824    -6.2300     7.4466 C.3     
  39 C39            5.3950    -6.6819     6.0776 C.3     
  40 N40            5.9436    -5.5060     8.1507 N.am    
  41 S41            6.9219    -6.3056     9.2212 S.o2    
  42 O42            7.7946    -5.2998     9.7172 O.2     
  43 O43            6.0180    -6.9819    10.0842 O.2     
  44 C44            7.8355    -7.4936     8.1991 C.3     
  45 H45            1.1787    -1.4519    -0.9631 H       
  46 H46            2.0792    -0.0761    -0.2715 H       
  47 H47           -2.0472    -0.1227     0.4891 H       
  48 H48           -1.5268    -1.1780    -0.8454 H       
  49 H49            2.2478    -2.2762     1.0226 H       
  50 H50            1.7394    -0.8625     1.9706 H       
  51 H51           -3.1524    -2.3095     1.1616 H       
  52 H52           -0.8572    -4.0320     5.4920 H       
  53 H53            0.1096    -6.7806     5.6873 H       
  54 H54           -2.9357    -8.1449     7.2086 H       
  55 H55           -0.7286    -4.7411     7.7960 H       
  56 H56           -0.0569    -6.3495     8.1568 H       
  57 H57            0.6565    -3.0091     6.8076 H       
  58 H58           -0.5705     3.6779     1.2377 H       
  59 H59           -2.6847     4.8994     1.2286 H       
  60 H60           -2.2870     0.6288    -1.2482 H       
  61 H61           -5.5212     4.8171     0.1627 H       
  62 H62           -6.6779     3.0305    -1.3454 H       
  63 H63            2.2662    -6.8605     7.6826 H       
  64 H64            4.8796    -3.6056     6.8076 H       
  65 H65            2.9351    -2.1232     6.5149 H       
  66 H66            4.5884    -7.1022     8.0305 H       
  67 H67            4.6055    -7.2206     5.5537 H       
  68 H68            5.6890    -5.8097     5.4937 H       
  69 H69            6.2558    -7.3373     6.2102 H       
  70 H70            6.0732    -4.5582     7.9900 H       
  71 H71            8.4108    -6.9569     7.4448 H       
  72 H72            8.5121    -8.0705     8.8296 H       
  73 H73            7.1326    -8.1671     7.7089 H       
@<TRIPOS>BOND
   1    1    2 am
   2    1    3 2
   3    1   22 1
   4    2    4 1
   5    2    5 1
   6    4    8 1
   7    4   45 1
   8    4   46 1
   9    5    6 1
  10    5   47 1
  11    5   48 1
  12    6    7 ar
  13    6    9 ar
  14    7    8 1
  15    7   12 ar
  16    8   49 1
  17    8   50 1
  18    9   10 ar
  19    9   51 1
  20   10   11 ar
  21   10   14 1
  22   11   12 ar
  23   11   15 1
  24   12   13 1
  25   15   16 am
  26   15   17 2
  27   16   18 1
  28   16   52 1
  29   18   19 1
  30   18   23 1
  31   18   53 1
  32   19   20 1
  33   19   21 2
  34   20   54 1
  35   22   26 ar
  36   22   30 ar
  37   23   24 1
  38   23   55 1
  39   23   56 1
  40   24   25 ar
  41   24   34 ar
  42   25   37 ar
  43   25   57 1
  44   26   27 ar
  45   26   58 1
  46   27   28 ar
  47   27   59 1
  48   28   29 ar
  49   28   31 1
  50   29   30 ar
  51   29   33 1
  52   30   60 1
  53   31   32 2
  54   31   61 1
  55   32   33 1
  56   32   62 1
  57   34   35 ar
  58   34   63 1
  59   35   36 ar
  60   35   38 1
  61   36   37 ar
  62   36   64 1
  63   37   65 1
  64   38   39 1
  65   38   40 1
  66   38   66 1
  67   39   67 1
  68   39   68 1
  69   39   69 1
  70   40   41 am
  71   40   70 1
  72   41   42 2
  73   41   43 2
  74   41   44 1
  75   44   71 1
  76   44   72 1
  77   44   73 1

#	End of record

