#	Name: ASD01411054
#	Creating user name:	WinNT
#	Creation time:	15. 06. 2019 19:19

#	Modifying user name:	WinNT
#	Modification time:	15. 06. 2019 19:19

#	Program:	/corina/corina34_cracker 3.40 0067  02.08.2006

@<TRIPOS>MOLECULE
ASD01411054
  41   44    0    0    0
SMALL
NO_CHARGES


@<TRIPOS>ATOM
   1 C1             0.6373     0.2661    -1.1971 C.ar    
   2 C2             0.0034    -0.0064     0.0013 C.ar    
   3 C3             1.8239     0.9725    -1.2076 C.ar    
   4 C4             0.5556     0.4282     1.1934 C.ar    
   5 C5             2.3812     1.4099    -0.0132 C.ar    
   6 C6             1.7433     1.1358     1.1888 C.ar    
   7 Cl7           -0.2439     0.0851     2.6957 Cl      
   8 N8             3.5851     2.1264    -0.0213 N.am    
   9 C9             4.7443     1.4471     0.0613 C.2     
  10 C10            3.5403     3.4687    -0.1169 C.2     
  11 C11            6.0255     2.1597     0.0564 C.ar    
  12 O12            4.7287     0.2330     0.1411 O.2     
  13 C13            4.7825     4.2535    -0.1289 C.ar    
  14 O14            2.4662     4.0343    -0.1941 O.2     
  15 C15            6.0174     3.5712    -0.0370 C.ar    
  16 C16            7.2426     1.4891     0.1403 C.ar    
  17 C17            4.7800     5.6383    -0.2259 C.ar    
  18 C18            7.2286     4.2912    -0.0451 C.ar    
  19 C19            8.4315     2.1947     0.1323 C.ar    
  20 C20            5.9784     6.3389    -0.2331 C.ar    
  21 C21            8.4481     3.5793     0.0420 C.ar    
  22 C22            7.1891     5.6897    -0.1386 C.ar    
  23 N23            9.6511     4.2599     0.0357 N.pl3   
  24 C24           10.9120     3.5197     0.1260 C.3     
  25 H25            9.6604     5.2278    -0.0285 H       
  26 C26           12.0838     4.5031     0.0986 C.3     
  27 O27           12.0434     5.3249     1.2669 O.3     
  28 H28            0.2062    -0.0779    -2.1257 H       
  29 H29           -0.9244    -0.5590     0.0068 H       
  30 H30            2.3183     1.1845    -2.1442 H       
  31 H31            2.1742     1.4749     2.1192 H       
  32 H32            7.2582     0.4116     0.2123 H       
  33 H33            3.8436     6.1717    -0.2963 H       
  34 H34            9.3661     1.6575     0.1982 H       
  35 H35            5.9607     7.4161    -0.3091 H       
  36 H36            8.1082     6.2568    -0.1461 H       
  37 H37           10.9349     2.9531     1.0570 H       
  38 H38           10.9926     2.8349    -0.7181 H       
  39 H39           13.0224     3.9493     0.0762 H       
  40 H40           12.0109     5.1305    -0.7897 H       
  41 H41           12.7587     5.9737     1.3164 H       
@<TRIPOS>BOND
   1    1    2 ar
   2    1    3 ar
   3    1   28 1
   4    2    4 ar
   5    2   29 1
   6    3    5 ar
   7    3   30 1
   8    4    6 ar
   9    4    7 1
  10    5    6 ar
  11    5    8 1
  12    6   31 1
  13    8   10 am
  14    8    9 am
  15    9   11 1
  16    9   12 2
  17   10   13 1
  18   10   14 2
  19   11   15 ar
  20   11   16 ar
  21   13   17 ar
  22   13   15 ar
  23   15   18 ar
  24   16   19 ar
  25   16   32 1
  26   17   20 ar
  27   17   33 1
  28   18   21 ar
  29   18   22 ar
  30   19   21 ar
  31   19   34 1
  32   20   22 ar
  33   20   35 1
  34   21   23 1
  35   22   36 1
  36   23   25 1
  37   23   24 1
  38   24   26 1
  39   24   37 1
  40   24   38 1
  41   26   27 1
  42   26   39 1
  43   26   40 1
  44   27   41 1

#	End of record

