#	Name: ASD04880135
#	Creating user name:	WinNT
#	Creation time:	15. 06. 2019 20:52

#	Modifying user name:	WinNT
#	Modification time:	15. 06. 2019 20:52

#	Program:	/corina/corina34_cracker 3.40 0067  02.08.2006

@<TRIPOS>MOLECULE
ASD04880135
  36   38    0    0    0
SMALL
NO_CHARGES


@<TRIPOS>ATOM
   1 C1            -0.0144     1.2118     0.0087 C.2     
   2 O2             0.0578    -0.0018    -0.0140 O.2     
   3 C3             1.2187     2.0260    -0.0193 C.ar    
   4 C4             2.4678     1.4096     0.0724 C.ar    
   5 C5             3.6164     2.1770     0.0456 C.ar    
   6 C6             3.5288     3.5553    -0.0721 C.ar    
   7 C7             2.2933     4.1701    -0.1632 C.ar    
   8 C8             1.1392     3.4141    -0.1434 C.ar    
   9 F9             4.8266     1.5832     0.1346 F       
  10 N10           -1.2191     1.8145     0.0538 N.am    
  11 N11           -1.4355     3.1836     0.1955 N.2     
  12 C12           -2.6790     3.5210     0.2119 C.2     
  13 C13           -3.5393     2.2861     0.0678 C.3     
  14 C14           -2.5205     1.1347    -0.0447 C.3     
  15 C15           -4.5573     5.1523     0.3568 C.ar    
  16 C16           -3.1848     4.8988     0.3508 C.ar    
  17 C17           -2.2942     5.9746     0.4792 C.ar    
  18 C18           -2.8175     7.2477     0.6071 C.ar    
  19 C19           -4.1994     7.4184     0.6042 C.ar    
  20 N20           -5.0127     6.3823     0.4807 N.ar    
  21 O21           -4.7194     8.6654     0.7293 O.3     
  22 C22           -6.1439     8.7783     0.7195 C.3     
  23 F23           -1.9975     8.3140     0.7339 F       
  24 H24            2.5362     0.3357     0.1644 H       
  25 H25            4.4290     4.1516    -0.0923 H       
  26 H26            2.2318     5.2445    -0.2544 H       
  27 H27            0.1756     3.8959    -0.2195 H       
  28 H28           -4.1726     2.1567     0.9455 H       
  29 H29           -4.1450     2.3454    -0.8365 H       
  30 H30           -2.6165     0.6274    -1.0047 H       
  31 H31           -2.6484     0.4301     0.7770 H       
  32 H32           -5.2528     4.3325     0.2541 H       
  33 H33           -1.2264     5.8124     0.4786 H       
  34 H34           -6.5325     8.3921    -0.2228 H       
  35 H35           -6.5597     8.2032     1.5469 H       
  36 H36           -6.4262     9.8256     0.8270 H       
@<TRIPOS>BOND
   1    1    2 2
   2    1    3 1
   3    1   10 am
   4    3    4 ar
   5    3    8 ar
   6    4    5 ar
   7    4   24 1
   8    5    6 ar
   9    5    9 1
  10    6    7 ar
  11    6   25 1
  12    7    8 ar
  13    7   26 1
  14    8   27 1
  15   10   11 1
  16   10   14 1
  17   11   12 2
  18   12   13 1
  19   12   16 1
  20   13   14 1
  21   13   28 1
  22   13   29 1
  23   14   30 1
  24   14   31 1
  25   15   16 ar
  26   15   20 ar
  27   15   32 1
  28   16   17 ar
  29   17   18 ar
  30   17   33 1
  31   18   19 ar
  32   18   23 1
  33   19   20 ar
  34   19   21 1
  35   21   22 1
  36   22   34 1
  37   22   35 1
  38   22   36 1

#	End of record

