#	Name: ASD02770085
#	Creating user name:	WinNT
#	Creation time:	15. 06. 2019 20:26

#	Modifying user name:	WinNT
#	Modification time:	15. 06. 2019 20:26

#	Program:	/corina/corina34_cracker 3.40 0067  02.08.2006

@<TRIPOS>MOLECULE
ASD02770085
  25   26    0    0    0
SMALL
NO_CHARGES


@<TRIPOS>ATOM
   1 N1            -0.0169     1.3968     0.0097 N.pl3   
   2 N2             0.0021    -0.0041     0.0020 N.2     
   3 C3            -1.1128    -0.6682     0.0091 C.2     
   4 O4            -1.2964    -6.2603    -0.0210 O.3     
   5 C5            -2.6725    -6.3965    -0.4219 C.3     
   6 O6            -3.2774    -5.1615     0.0044 O.3     
   7 C7            -2.2688    -4.2412     0.0002 C.ar    
   8 C8            -1.0490    -4.9178    -0.0155 C.ar    
   9 C9            -2.2922    -2.8595     0.0086 C.ar    
  10 C10           -1.0928    -2.1425     0.0010 C.ar    
  11 C11            0.1249    -2.8263    -0.0148 C.ar    
  12 C12            0.1410    -4.2054    -0.0232 C.ar    
  13 C13            1.1653     2.1010     0.0022 C.2     
  14 N14            2.3031     1.4646    -0.0121 N.2     
  15 N15            1.1467     3.4765     0.0098 N.pl3   
  16 H16           -0.8635     1.8703     0.0163 H       
  17 H17           -2.0553    -0.1409     0.0209 H       
  18 H18           -2.7470    -6.5060    -1.5038 H       
  19 H19           -3.1362    -7.2442     0.0827 H       
  20 H20           -3.2360    -2.3346     0.0204 H       
  21 H21            1.0537    -2.2752    -0.0212 H       
  22 H22            1.0836    -4.7325    -0.0350 H       
  23 H23            3.1364     1.9609    -0.0174 H       
  24 H24            0.3002     3.9500     0.0204 H       
  25 H25            1.9800     3.9729     0.0045 H       
@<TRIPOS>BOND
   1    1    2 1
   2    1   13 1
   3    1   16 1
   4    2    3 2
   5    3   10 1
   6    3   17 1
   7    4    5 1
   8    4    8 1
   9    5    6 1
  10    5   18 1
  11    5   19 1
  12    6    7 1
  13    7    8 ar
  14    7    9 ar
  15    8   12 ar
  16    9   10 ar
  17    9   20 1
  18   10   11 ar
  19   11   12 ar
  20   11   21 1
  21   12   22 1
  22   13   14 2
  23   13   15 1
  24   14   23 1
  25   15   24 1
  26   15   25 1

#	End of record

