#	Name: ASD04880078
#	Creating user name:	WinNT
#	Creation time:	15. 06. 2019 20:52

#	Modifying user name:	WinNT
#	Modification time:	15. 06. 2019 20:52

#	Program:	/corina/corina34_cracker 3.40 0067  02.08.2006

@<TRIPOS>MOLECULE
ASD04880078
  44   46    0    0    0
SMALL
NO_CHARGES


@<TRIPOS>ATOM
   1 C1            -0.1082     1.0374     0.0579 C.2     
   2 O2            -0.1498    -0.1776     0.0324 O.2     
   3 C3             1.1944     1.7335     0.0048 C.ar    
   4 C4             2.3162     1.1687     0.6141 C.ar    
   5 C5             3.5310     1.8247     0.5600 C.ar    
   6 C6             3.6355     3.0406    -0.0969 C.ar    
   7 C7             2.5267     3.6039    -0.7019 C.ar    
   8 C8             1.3093     2.9556    -0.6598 C.ar    
   9 C9             2.2025    -0.1529     1.3292 C.3     
  10 F10            4.6183     1.2804     1.1488 F       
  11 N11           -1.2504     1.7494     0.1290 N.am    
  12 N12           -1.3354     3.1331     0.2698 N.2     
  13 C13           -2.5415     3.5846     0.3138 C.2     
  14 C14           -3.5159     2.4345     0.1951 C.3     
  15 C15           -2.6112     1.1932     0.0642 C.3     
  16 C16           -2.9139     5.0036     0.4577 C.ar    
  17 C17           -1.9207     5.9818     0.5584 C.ar    
  18 C18           -2.2755     7.3106     0.6927 C.ar    
  19 C19           -3.6208     7.6728     0.7274 C.ar    
  20 C20           -4.6066     6.7024     0.6275 C.ar    
  21 C21           -4.2604     5.3745     0.4879 C.ar    
  22 O22           -3.9676     8.9805     0.8600 O.3     
  23 C23           -5.3642     9.2815     0.8884 C.3     
  24 O24           -1.3117     8.2650     0.7914 O.3     
  25 C25            0.0464     7.8224     0.7490 C.3     
  26 H26            4.5867     3.5506    -0.1362 H       
  27 H27            2.6147     4.5518    -1.2119 H       
  28 H28            0.4458     3.3951    -1.1367 H       
  29 H29            2.3088    -0.9654     0.6104 H       
  30 H30            2.9881    -0.2280     2.0811 H       
  31 H31            1.2284    -0.2214     1.8135 H       
  32 H32           -4.1375     2.3664     1.0878 H       
  33 H33           -4.1346     2.5479    -0.6951 H       
  34 H34           -2.7767     0.6947    -0.8909 H       
  35 H35           -2.7843     0.5056     0.8920 H       
  36 H36           -0.8785     5.6999     0.5317 H       
  37 H37           -5.6479     6.9875     0.6552 H       
  38 H38           -5.0301     4.6214     0.4058 H       
  39 H39           -5.5018    10.3573     0.9977 H       
  40 H40           -5.8267     8.9487    -0.0408 H       
  41 H41           -5.8295     8.7684     1.7300 H       
  42 H42            0.2301     7.1341     1.5740 H       
  43 H43            0.2334     7.3139    -0.1969 H       
  44 H44            0.7114     8.6814     0.8374 H       
@<TRIPOS>BOND
   1    1    2 2
   2    1    3 1
   3    1   11 am
   4    3    4 ar
   5    3    8 ar
   6    4    5 ar
   7    4    9 1
   8    5    6 ar
   9    5   10 1
  10    6    7 ar
  11    6   26 1
  12    7    8 ar
  13    7   27 1
  14    8   28 1
  15    9   29 1
  16    9   30 1
  17    9   31 1
  18   11   12 1
  19   11   15 1
  20   12   13 2
  21   13   14 1
  22   13   16 1
  23   14   15 1
  24   14   32 1
  25   14   33 1
  26   15   34 1
  27   15   35 1
  28   16   17 ar
  29   16   21 ar
  30   17   18 ar
  31   17   36 1
  32   18   19 ar
  33   18   24 1
  34   19   20 ar
  35   19   22 1
  36   20   21 ar
  37   20   37 1
  38   21   38 1
  39   22   23 1
  40   23   39 1
  41   23   40 1
  42   23   41 1
  43   24   25 1
  44   25   42 1
  45   25   43 1
  46   25   44 1

#	End of record

