#	Name: ASD02039196
#	Creating user name:	WinNT
#	Creation time:	15. 06. 2019 20:17

#	Modifying user name:	WinNT
#	Modification time:	15. 06. 2019 20:17

#	Program:	/corina/corina34_cracker 3.40 0067  02.08.2006

@<TRIPOS>MOLECULE
ASD02039196
  41   44    0    0    0
SMALL
NO_CHARGES


@<TRIPOS>ATOM
   1 N1            -0.0009     1.2803     0.2562 N.2     
   2 C2             0.0074    -0.0199     0.1294 C.2     
   3 N3             1.2987    -0.4143     0.1381 N.2     
   4 C4             2.0014     0.6837     0.2712 C.2     
   5 O5             1.1345     1.6988     0.3387 O.3     
   6 C6             3.5037     0.7832     0.3360 C.3     
   7 N7            -1.1051    -0.8435     0.0088 N.pl3   
   8 C8            -2.3896    -0.3053     0.1297 C.ar    
   9 C9            -3.4559    -0.8917    -0.5399 C.ar    
  10 C10           -4.7236    -0.3574    -0.4183 C.ar    
  11 C11           -4.9320     0.7601     0.3690 C.ar    
  12 C12           -3.8726     1.3464     1.0371 C.ar    
  13 C13           -2.6034     0.8138     0.9243 C.ar    
  14 C14           -6.3166     1.3407     0.4990 C.3     
  15 C15            4.0563     0.9546    -1.0555 C.ar    
  16 C16            4.2243     2.2317    -1.5769 C.ar    
  17 C17            4.7227     2.4137    -2.8355 C.ar    
  18 C18            5.0690     1.3093    -3.6104 C.ar    
  19 C19            4.8999     0.0143    -3.0837 C.ar    
  20 C20            4.3921    -0.1458    -1.7895 C.ar    
  21 N21            5.5798     1.1582    -4.8730 N.pl3   
  22 N22            5.7327    -0.2055    -5.1441 N.2     
  23 C23            5.3453    -0.9113    -4.1203 C.2     
  24 C24           -7.0342     0.6881     1.6822 C.3     
  25 H25            3.7850     1.6411     0.9468 H       
  26 H26            3.9094    -0.1265     0.7786 H       
  27 H27           -0.9906    -1.7919    -0.1593 H       
  28 H28           -3.2938    -1.7644    -1.1553 H       
  29 H29           -5.5531    -0.8127    -0.9390 H       
  30 H30           -4.0387     2.2194     1.6509 H       
  31 H31           -1.7765     1.2720     1.4466 H       
  32 H32           -6.2457     2.4157     0.6650 H       
  33 H33           -6.8776     1.1506    -0.4160 H       
  34 H34            3.9571     3.0910    -0.9796 H       
  35 H35            4.8477     3.4116    -3.2291 H       
  36 H36            4.2589    -1.1350    -1.3770 H       
  37 H37            5.7998     1.8810    -5.4813 H       
  38 H38            5.3529    -1.9890    -4.0507 H       
  39 H39           -6.4732     0.8783     2.5972 H       
  40 H40           -8.0357     1.1080     1.7762 H       
  41 H41           -7.1051    -0.3868     1.5162 H       
@<TRIPOS>BOND
   1    1    2 2
   2    1    5 1
   3    2    3 1
   4    2    7 1
   5    3    4 2
   6    4    5 1
   7    4    6 1
   8    6   15 1
   9    6   25 1
  10    6   26 1
  11    7    8 1
  12    7   27 1
  13    8    9 ar
  14    8   13 ar
  15    9   10 ar
  16    9   28 1
  17   10   11 ar
  18   10   29 1
  19   11   12 ar
  20   11   14 1
  21   12   13 ar
  22   12   30 1
  23   13   31 1
  24   14   24 1
  25   14   32 1
  26   14   33 1
  27   15   16 ar
  28   15   20 ar
  29   16   17 ar
  30   16   34 1
  31   17   18 ar
  32   17   35 1
  33   18   19 ar
  34   18   21 1
  35   19   20 ar
  36   19   23 1
  37   20   36 1
  38   21   22 1
  39   21   37 1
  40   22   23 2
  41   23   38 1
  42   24   39 1
  43   24   40 1
  44   24   41 1

#	End of record

