#	Name: ASD06170034
#	Creating user name:	WinNT
#	Creation time:	15. 06. 2019 21:05

#	Modifying user name:	WinNT
#	Modification time:	15. 06. 2019 21:05

#	Program:	/corina/corina34_cracker 3.40 0067  02.08.2006

@<TRIPOS>MOLECULE
ASD06170034
  68   72    0    0    0
SMALL
NO_CHARGES


@<TRIPOS>ATOM
   1 N1             0.7415    -2.4046     1.2071 N.pl3   
   2 N2             0.5700    -1.1996     0.5192 N.am    
   3 C3             1.7865    -0.6886     0.2377 C.2     
   4 C4             2.7730    -1.6325     0.7834 C.2     
   5 C5             2.0539    -2.6604     1.3634 C.2     
   6 C6             4.2346    -1.5076     0.7240 C.2     
   7 O7             4.9394    -2.3673     1.2190 O.2     
   8 N8             4.7958    -0.4408     0.1211 N.am    
   9 C9            -0.6126    -0.6422     0.1916 C.2     
  10 N10           -1.9965     0.9883    -1.0191 N.3     
  11 C11           -0.6512     0.7218    -0.4479 C.3     
  12 C12           -0.4562     1.8218     0.6177 C.3     
  13 C13           -1.3880     2.9715     0.1822 C.3     
  14 C14           -2.0676     2.4695    -1.1099 C.3     
  15 O15           -1.6453    -1.2381     0.4115 O.2     
  16 O16            2.0211     0.3490    -0.3523 O.2     
  17 C17            2.6401    -3.8643     2.0546 C.3     
  18 C18           -0.3455    -3.2588     1.6916 C.3     
  19 C19            6.1859    -0.2737     0.1455 C.ar    
  20 C20            7.0199    -1.3828     0.0868 C.ar    
  21 C21            8.3919    -1.2169     0.1109 C.ar    
  22 C22            8.9356     0.0594     0.1939 C.ar    
  23 C23            8.1021     1.1658     0.2529 C.ar    
  24 C24            6.7308     1.0009     0.2226 C.ar    
  25 F25            9.2040    -2.2951     0.0543 F       
  26 O26           10.2855     0.2231     0.2176 O.3     
  27 N27           12.2979     0.0621    -3.3789 N.ar    
  28 C28           10.9867     0.0110    -3.3533 C.ar    
  29 C29           10.2748     0.0624    -2.1617 C.ar    
  30 C30           10.9539     0.1704    -0.9608 C.ar    
  31 C31           12.3654     0.2246    -1.0005 C.ar    
  32 C32           13.1227     0.3337     0.1754 C.ar    
  33 C33           14.4847     0.3829     0.0995 C.ar    
  34 C34           15.1341     0.3261    -1.1419 C.ar    
  35 C35           14.4213     0.2204    -2.3013 C.ar    
  36 C36           13.0183     0.1665    -2.2558 C.ar    
  37 O37           16.4911     0.3773    -1.1916 O.3     
  38 C38           17.0958     0.3151    -2.4849 C.3     
  39 O39           15.2190     0.4886     1.2391 O.3     
  40 C40           14.4989     0.5426     2.4722 C.3     
  41 H41            4.2368     0.2113    -0.3296 H       
  42 H42           -2.0928     0.5652    -1.9300 H       
  43 H43            0.1126     0.7999    -1.2216 H       
  44 H44           -0.7458     1.4517     1.6012 H       
  45 H45            0.5805     2.1583     0.6291 H       
  46 H46           -2.1349     3.1657     0.9519 H       
  47 H47           -0.8086     3.8723    -0.0202 H       
  48 H48           -1.5252     2.8230    -1.9868 H       
  49 H49           -3.1060     2.7987    -1.1458 H       
  50 H50            2.7885    -4.6637     1.3286 H       
  51 H51            3.5978    -3.5965     2.5010 H       
  52 H52            1.9581    -4.2036     2.8342 H       
  53 H53           -0.6752    -3.9179     0.8884 H       
  54 H54            0.0092    -3.8577     2.5304 H       
  55 H55           -1.1794    -2.6366     2.0164 H       
  56 H56            6.5966    -2.3743     0.0227 H       
  57 H57            8.5251     2.1574     0.3177 H       
  58 H58            6.0823     1.8635     0.2637 H       
  59 H59           10.4463    -0.0729    -4.2846 H       
  60 H60            9.1957     0.0186    -2.1724 H       
  61 H61           12.6307     0.3788     1.1357 H       
  62 H62           14.9344     0.1775    -3.2506 H       
  63 H63           16.8201    -0.6211    -2.9703 H       
  64 H64           16.7487     1.1535    -3.0889 H       
  65 H65           18.1797     0.3656    -2.3820 H       
  66 H66           15.2025     0.6262     3.3005 H       
  67 H67           13.8370     1.4087     2.4688 H       
  68 H68           13.9078    -0.3659     2.5878 H       
@<TRIPOS>BOND
   1    1    2 1
   2    1    5 1
   3    1   18 1
   4    2    3 am
   5    2    9 am
   6    3    4 1
   7    3   16 2
   8    4    5 2
   9    4    6 1
  10    5   17 1
  11    6    7 2
  12    6    8 am
  13    8   19 1
  14    8   41 1
  15    9   15 2
  16    9   11 1
  17   10   11 1
  18   10   14 1
  19   10   42 1
  20   11   12 1
  21   11   43 1
  22   12   13 1
  23   12   44 1
  24   12   45 1
  25   13   14 1
  26   13   46 1
  27   13   47 1
  28   14   48 1
  29   14   49 1
  30   17   50 1
  31   17   51 1
  32   17   52 1
  33   18   53 1
  34   18   54 1
  35   18   55 1
  36   19   20 ar
  37   19   24 ar
  38   20   21 ar
  39   20   56 1
  40   21   22 ar
  41   21   25 1
  42   22   23 ar
  43   22   26 1
  44   23   24 ar
  45   23   57 1
  46   24   58 1
  47   26   30 1
  48   27   28 ar
  49   27   36 ar
  50   28   29 ar
  51   28   59 1
  52   29   30 ar
  53   29   60 1
  54   30   31 ar
  55   31   32 ar
  56   31   36 ar
  57   32   33 ar
  58   32   61 1
  59   33   34 ar
  60   33   39 1
  61   34   35 ar
  62   34   37 1
  63   35   36 ar
  64   35   62 1
  65   37   38 1
  66   38   63 1
  67   38   64 1
  68   38   65 1
  69   39   40 1
  70   40   66 1
  71   40   67 1
  72   40   68 1

#	End of record

