#	Name: ASD01811138
#	Creating user name:	WinNT
#	Creation time:	15. 06. 2019 19:26

#	Modifying user name:	WinNT
#	Modification time:	15. 06. 2019 19:26

#	Program:	/corina/corina34_cracker 3.40 0067  02.08.2006

@<TRIPOS>MOLECULE
ASD01811138
  59   62    0    0    0
SMALL
NO_CHARGES


@<TRIPOS>ATOM
   1 C1            -0.0167     1.3817     0.0096 C.ar    
   2 C2             0.0021    -0.0041     0.0020 C.ar    
   3 C3            -1.1835    -0.7167     0.0095 C.ar    
   4 C4            -2.3940    -0.0414     0.0252 C.ar    
   5 C5            -2.4117     1.3550     0.0333 C.ar    
   6 C6            -1.2192     2.0615     0.0305 C.ar    
   7 N7            -3.7221    -0.4610     0.0362 N.am    
   8 C8            -4.5118     0.6293     0.0503 C.2     
   9 N9            -3.7514     1.7403     0.0490 N.am    
  10 O10           -5.7285     0.6130     0.0619 O.2     
  11 C11           -4.2471     3.1188     0.0618 C.3     
  12 C12           -5.1113     3.3634    -1.1783 C.3     
  13 C13           -5.6757     4.7850    -1.1285 C.3     
  14 N14           -6.4780     4.9521     0.0900 N.3     
  15 C15           -5.6585     4.7686     1.2947 C.3     
  16 C16           -5.0937     3.3465     1.3172 C.3     
  17 C17           -8.6715     7.7571     1.3995 C.3     
  18 C18           -7.9730     6.3959     1.3853 C.3     
  19 C19           -7.1487     6.2590     0.1036 C.3     
  20 C20           -6.0995     7.3713     0.0508 C.3     
  21 C21           -6.7980     8.7324     0.0649 C.3     
  22 C22           -7.6223     8.8694     1.3466 C.3     
  23 O23           -8.2852    10.1611     1.3601 O.3     
  24 C24           -8.5159    10.7152     2.5607 C.2     
  25 C25           -8.0723     6.3709    -1.1110 C.3     
  26 C26           -9.1999    12.0548     2.6534 C.3     
  27 O27           -8.1752    10.1399     3.5671 O.2     
  28 F28            1.1824    -0.6612    -0.0132 F       
  29 C29            1.2797     2.1500     0.0014 C.3     
  30 H30           -1.1661    -1.7966     0.0028 H       
  31 H31           -1.2301     3.1414     0.0372 H       
  32 H32           -4.0262    -1.3820     0.0337 H       
  33 H33           -3.4037     3.8093     0.0600 H       
  34 H34           -4.5031     3.2445    -2.0749 H       
  35 H35           -5.9321     2.6465    -1.1970 H       
  36 H36           -4.8545     5.5018    -1.1237 H       
  37 H37           -6.3031     4.9575    -2.0029 H       
  38 H38           -4.8375     5.4855     1.2881 H       
  39 H39           -6.2735     4.9292     2.1802 H       
  40 H40           -5.9142     2.6293     1.3378 H       
  41 H41           -4.4728     3.2155     2.2035 H       
  42 H42           -9.3295     7.8368     0.5341 H       
  43 H43           -9.2587     7.8546     2.3126 H       
  44 H44           -7.3150     6.3162     2.2507 H       
  45 H45           -8.7205     5.6035     1.4230 H       
  46 H46           -5.4415     7.2916     0.9161 H       
  47 H47           -5.5123     7.2738    -0.8623 H       
  48 H48           -6.0505     9.5249     0.0273 H       
  49 H49           -7.4560     8.8122    -0.8004 H       
  50 H50           -6.9643     8.7896     2.2120 H       
  51 H51           -8.5699     7.3406    -1.1010 H       
  52 H52           -7.4851     6.2734    -2.0242 H       
  53 H53           -8.8198     5.5785    -1.0734 H       
  54 H54          -10.1885    11.9903     2.1989 H       
  55 H55           -9.2995    12.3402     3.7007 H       
  56 H56           -8.6065    12.8030     2.1278 H       
  57 H57            1.5825     2.3408    -1.0282 H       
  58 H58            1.1435     3.0981     0.5216 H       
  59 H59            2.0508     1.5669     0.5048 H       
@<TRIPOS>BOND
   1    1    2 ar
   2    1   29 1
   3    1    6 ar
   4    2    3 ar
   5    2   28 1
   6    3    4 ar
   7    3   30 1
   8    4    5 ar
   9    4    7 1
  10    5    6 ar
  11    5    9 1
  12    6   31 1
  13    7    8 am
  14    7   32 1
  15    8    9 am
  16    8   10 2
  17    9   11 1
  18   11   12 1
  19   11   16 1
  20   11   33 1
  21   12   13 1
  22   12   34 1
  23   12   35 1
  24   13   14 1
  25   13   36 1
  26   13   37 1
  27   14   15 1
  28   14   19 1
  29   15   16 1
  30   15   38 1
  31   15   39 1
  32   16   40 1
  33   16   41 1
  34   17   18 1
  35   17   22 1
  36   17   42 1
  37   17   43 1
  38   18   19 1
  39   18   44 1
  40   18   45 1
  41   19   20 1
  42   19   25 1
  43   20   21 1
  44   20   46 1
  45   20   47 1
  46   21   22 1
  47   21   48 1
  48   21   49 1
  49   22   23 1
  50   22   50 1
  51   23   24 1
  52   24   26 1
  53   24   27 2
  54   25   51 1
  55   25   52 1
  56   25   53 1
  57   26   54 1
  58   26   55 1
  59   26   56 1
  60   29   57 1
  61   29   58 1
  62   29   59 1

#	End of record

