#	Name: ASD02398032
#	Creating user name:	WinNT
#	Creation time:	15. 06. 2019 20:20

#	Modifying user name:	WinNT
#	Modification time:	15. 06. 2019 20:20

#	Program:	/corina/corina34_cracker 3.40 0067  02.08.2006

@<TRIPOS>MOLECULE
ASD02398032
  63   66    0    0    0
SMALL
NO_CHARGES


@<TRIPOS>ATOM
   1 C1            -0.8018     1.0482     0.3258 C.ar    
   2 C2            -0.4206    -0.2965     0.2820 C.ar    
   3 C3            -1.3626    -1.2895     0.5390 C.ar    
   4 C4            -2.6656    -0.9428     0.8352 C.ar    
   5 C5            -3.0398     0.3884     0.8777 C.ar    
   6 C6            -2.1116     1.3821     0.6294 C.ar    
   7 C7            -3.6841    -2.0182     1.1126 C.3     
   8 C8            -3.6246    -2.4030     2.5685 C.2     
   9 O9            -2.7739    -1.9296     3.2841 O.2     
  10 O10           -4.5166    -3.2714     3.0702 O.3     
  11 C11            0.9807    -0.6636    -0.0371 C.ar    
  12 C12            2.0059    -0.3519     0.8543 C.ar    
  13 C13            1.2763    -1.3265    -1.2266 C.ar    
  14 C14            2.5821    -1.6661    -1.5182 C.ar    
  15 C15            3.5960    -1.3496    -0.6325 C.ar    
  16 C16            3.3076    -0.6962     0.5524 C.ar    
  17 C17            1.6933     0.3603     2.1451 C.3     
  18 N18            2.9038     0.4352     2.9670 N.am    
  19 C19            3.8586     1.3699     2.8647 C.2     
  20 O20            4.8631     1.2146     3.7343 O.3     
  21 C21            4.6139     0.0401     4.5597 C.3     
  22 C22            3.2661    -0.4996     4.0433 C.3     
  23 O23            3.8160     2.2755     2.0557 O.2     
  24 C24            3.4323    -1.9140     3.4839 C.3     
  25 C25            5.7053    -0.9814     4.3684 C.ar    
  26 C26            6.0967    -1.7810     5.4258 C.ar    
  27 C27            6.3111    -1.1225     3.1339 C.ar    
  28 C28            7.3122    -2.0594     2.9583 C.ar    
  29 C29            7.7078    -2.8549     4.0174 C.ar    
  30 C30            7.0978    -2.7179     5.2503 C.ar    
  31 O31            0.1102     2.0237     0.0769 O.3     
  32 C32           -0.3514     3.3746     0.1394 C.3     
  33 C33            0.7908     4.3103    -0.1623 C.2     
  34 O34            1.8876     3.8658    -0.4060 O.2     
  35 O35            0.5896     5.6374    -0.1605 O.3     
  36 C36            5.0195    -1.7235    -0.9563 C.3     
  37 F37            5.0606    -2.3753    -2.1935 F       
  38 F38            5.8042    -0.5667    -1.0123 F       
  39 F39            5.5152    -2.5756     0.0364 F       
  40 H40           -1.0741    -2.3297     0.5064 H       
  41 H41           -4.0609     0.6525     1.1101 H       
  42 H42           -2.4097     2.4196     0.6641 H       
  43 H43           -4.6804    -1.6448     0.8759 H       
  44 H44           -3.4676    -2.8913     0.4970 H       
  45 H45           -4.4385    -3.4876     4.0094 H       
  46 H46            0.4853    -1.5745    -1.9188 H       
  47 H47            2.8123    -2.1803    -2.4397 H       
  48 H48            4.1032    -0.4515     1.2405 H       
  49 H49            1.3390     1.3679     1.9275 H       
  50 H50            0.9211    -0.1878     2.6847 H       
  51 H51            4.5321     0.3212     5.6097 H       
  52 H52            2.5188    -0.4859     4.8367 H       
  53 H53            3.8404    -2.5648     4.2571 H       
  54 H54            2.4624    -2.2943     3.1635 H       
  55 H55            4.1126    -1.8904     2.6325 H       
  56 H56            5.6205    -1.6736     6.3892 H       
  57 H57            6.0020    -0.5010     2.3065 H       
  58 H58            7.7851    -2.1701     1.9937 H       
  59 H59            8.4897    -3.5871     3.8801 H       
  60 H60            7.4069    -3.3394     6.0777 H       
  61 H61           -1.1449     3.5217    -0.5933 H       
  62 H62           -0.7362     3.5813     1.1381 H       
  63 H63            1.3524     6.1973    -0.3598 H       
@<TRIPOS>BOND
   1    1    2 ar
   2    1   31 1
   3    1    6 ar
   4    2    3 ar
   5    2   11 1
   6    3    4 ar
   7    3   40 1
   8    4    5 ar
   9    4    7 1
  10    5    6 ar
  11    5   41 1
  12    6   42 1
  13    7    8 1
  14    7   43 1
  15    7   44 1
  16    8    9 2
  17    8   10 1
  18   10   45 1
  19   11   12 ar
  20   11   13 ar
  21   12   17 1
  22   12   16 ar
  23   13   14 ar
  24   13   46 1
  25   14   15 ar
  26   14   47 1
  27   15   16 ar
  28   15   36 1
  29   16   48 1
  30   17   18 1
  31   17   49 1
  32   17   50 1
  33   18   19 am
  34   18   22 1
  35   19   20 1
  36   19   23 2
  37   20   21 1
  38   21   22 1
  39   21   25 1
  40   21   51 1
  41   22   24 1
  42   22   52 1
  43   24   53 1
  44   24   54 1
  45   24   55 1
  46   25   26 ar
  47   25   27 ar
  48   26   30 ar
  49   26   56 1
  50   27   28 ar
  51   27   57 1
  52   28   29 ar
  53   28   58 1
  54   29   30 ar
  55   29   59 1
  56   30   60 1
  57   31   32 1
  58   32   33 1
  59   32   61 1
  60   32   62 1
  61   33   34 2
  62   33   35 1
  63   35   63 1
  64   36   37 1
  65   36   38 1
  66   36   39 1

#	End of record

