#	Name: ASD01910890
#	Creating user name:	WinNT
#	Creation time:	15. 06. 2019 19:56

#	Modifying user name:	WinNT
#	Modification time:	15. 06. 2019 19:56

#	Program:	/corina/corina34_cracker 3.40 0067  02.08.2006

@<TRIPOS>MOLECULE
ASD01910890
  51   54    0    0    0
SMALL
NO_CHARGES


@<TRIPOS>ATOM
   1 C1             0.2017     1.5105    -0.2991 C.ar    
   2 N2             0.1382     0.1230    -0.2320 N.3     
   3 C3             1.4825    -0.4680    -0.2712 C.3     
   4 C4             1.3820    -1.9753    -0.0137 C.3     
   5 N5             0.4221    -2.5494    -0.9689 N.am    
   6 C6            -0.9033    -1.9226    -1.0853 C.3     
   7 C7            -0.7128    -0.4174    -1.3005 C.3     
   8 C8             0.7487    -3.6211    -1.7181 C.2     
   9 C9            -0.2712    -4.2622    -2.5756 C.ar    
  10 C10            0.0722    -4.7168    -3.8508 C.ar    
  11 C11           -0.8786    -5.3159    -4.6538 C.ar    
  12 C12           -2.1740    -5.4701    -4.2033 C.ar    
  13 C13           -2.5323    -5.0194    -2.9289 C.ar    
  14 C14           -1.5752    -4.4192    -2.1110 C.ar    
  15 C15           -3.8768    -5.1793    -2.4625 C.1     
  16 O16            1.8815    -4.0607    -1.6888 O.2     
  17 C17           -4.9790    -5.3105    -2.0801 C.1     
  18 C18           -6.3234    -5.4704    -1.6138 C.ar    
  19 C19           -6.6925    -5.0239    -0.3425 C.ar    
  20 N20           -7.9290    -5.1714     0.0857 N.ar    
  21 C21           -8.8604    -5.7392    -0.6562 C.ar    
  22 C22           -8.5755    -6.2083    -1.9264 C.ar    
  23 C23           -7.2933    -6.0725    -2.4270 C.ar    
  24 N24            1.1198     2.0894    -1.0568 N.ar    
  25 C25            1.2142     3.4028    -1.1484 C.ar    
  26 C26            0.3522     4.2252    -0.4519 C.ar    
  27 C27           -0.6261     3.6585     0.3549 C.ar    
  28 C28           -0.7047     2.2788     0.4269 C.ar    
  29 Cl29          -1.9078     1.5165     1.4194 Cl      
  30 C30            0.4715     5.7232    -0.5652 C.3     
  31 F31            1.5240     6.0431    -1.4295 F       
  32 F32           -0.7226     6.2492    -1.0698 F       
  33 F33            0.7238     6.2678     0.6985 F       
  34 H34            1.9274    -0.2953    -1.2512 H       
  35 H35            2.1044    -0.0085     0.4971 H       
  36 H36            2.3593    -2.4368    -0.1546 H       
  37 H37            1.0345    -2.1505     1.0044 H       
  38 H38           -1.4368    -2.3493    -1.9346 H       
  39 H39           -1.4704    -2.0927    -0.1701 H       
  40 H40           -1.6830     0.0789    -1.2788 H       
  41 H41           -0.2373    -0.2454    -2.2662 H       
  42 H42            1.0839    -4.5991    -4.2101 H       
  43 H43           -0.6071    -5.6650    -5.6391 H       
  44 H44           -2.9125    -5.9394    -4.8364 H       
  45 H45           -1.8459    -4.0691    -1.1258 H       
  46 H46           -5.9575    -4.5542     0.2945 H       
  47 H47           -9.8621    -5.8398    -0.2654 H       
  48 H48           -9.3476    -6.6716    -2.5227 H       
  49 H49           -7.0435    -6.4297    -3.4151 H       
  50 H50            1.9765     3.8396    -1.7765 H       
  51 H51           -1.3124     4.2805     0.9102 H       
@<TRIPOS>BOND
   1    1    2 1
   2    1   24 ar
   3    1   28 ar
   4    2    3 1
   5    2    7 1
   6    3    4 1
   7    3   34 1
   8    3   35 1
   9    4    5 1
  10    4   36 1
  11    4   37 1
  12    5    6 1
  13    5    8 am
  14    6    7 1
  15    6   38 1
  16    6   39 1
  17    7   40 1
  18    7   41 1
  19    8    9 1
  20    8   16 2
  21    9   10 ar
  22    9   14 ar
  23   10   11 ar
  24   10   42 1
  25   11   12 ar
  26   11   43 1
  27   12   13 ar
  28   12   44 1
  29   13   14 ar
  30   13   15 1
  31   14   45 1
  32   15   17 3
  33   17   18 1
  34   18   19 ar
  35   18   23 ar
  36   19   20 ar
  37   19   46 1
  38   20   21 ar
  39   21   22 ar
  40   21   47 1
  41   22   23 ar
  42   22   48 1
  43   23   49 1
  44   24   25 ar
  45   25   26 ar
  46   25   50 1
  47   26   27 ar
  48   26   30 1
  49   27   28 ar
  50   27   51 1
  51   28   29 1
  52   30   31 1
  53   30   32 1
  54   30   33 1

#	End of record

