#	Name: ASD01912639
#	Creating user name:	WinNT
#	Creation time:	15. 06. 2019 20:00

#	Modifying user name:	WinNT
#	Modification time:	15. 06. 2019 20:00

#	Program:	/corina/corina34_cracker 3.40 0067  02.08.2006

@<TRIPOS>MOLECULE
ASD01912639
  59   62    0    0    0
SMALL
NO_CHARGES


@<TRIPOS>ATOM
   1 C1            -0.0184     1.5028     0.0103 C.3     
   2 C2             0.0021    -0.0041     0.0020 C.2     
   3 N3            -0.0927    -0.7934    -1.0896 N.pl3   
   4 C4             0.1243    -0.8027     1.0847 C.2     
   5 C5             0.0986    -2.1390     0.6405 C.2     
   6 N6            -0.0323    -2.1281    -0.6691 N.2     
   7 C7             0.2045    -3.3462     1.4975 C.ar    
   8 C8             0.1645    -4.6155     0.9247 C.ar    
   9 C9            -0.2343    -0.3335    -2.4733 C.3     
  10 C10            1.1312    -0.1551    -3.0855 C.2     
  11 N11            1.2482     0.2644    -4.3610 N.am    
  12 O12            2.1247    -0.3891    -2.4305 O.2     
  13 C13            2.5711     0.4450    -4.9778 C.3     
  14 C14            2.5923    -0.3065    -6.3131 C.3     
  15 N15            1.4578     0.1326    -7.1365 N.3     
  16 C16            0.1767    -0.2020    -6.5005 C.3     
  17 C17            0.0564     0.5479    -5.1748 C.3     
  18 C18            1.5337    -0.4029    -8.4127 C.ar    
  19 C19            0.5546    -0.1138    -9.3597 C.ar    
  20 C20            0.6760    -0.6752   -10.6245 C.ar    
  21 N21            1.7153    -1.4633   -10.8848 N.ar    
  22 C22            2.6224    -1.7140    -9.9624 C.ar    
  23 N23            2.5467    -1.1970    -8.7532 N.ar    
  24 C24            1.4170     2.0324    -0.0006 C.3     
  25 C25            0.3501    -3.2135     2.8766 C.ar    
  26 C26            0.4488    -4.3413     3.6697 C.ar    
  27 C27            0.4035    -5.6010     3.0941 C.ar    
  28 C28            0.2639    -5.7358     1.7252 C.ar    
  29 C29            0.5124    -6.8278     3.9624 C.3     
  30 F30            0.5901    -4.2154     5.0074 F       
  31 O31           -0.2520    -0.4238   -11.5800 O.3     
  32 C32           -0.0544    -1.0394   -12.8543 C.3     
  33 H33           -0.5455     1.8639    -0.8728 H       
  34 H34           -0.5286     1.8543     0.9071 H       
  35 H35            0.2245    -0.4747     2.1088 H       
  36 H36            0.0555    -4.7229    -0.1444 H       
  37 H37           -0.7956    -1.0718    -3.0459 H       
  38 H38           -0.7659     0.6180    -2.4874 H       
  39 H39            2.7523     1.5057    -5.1517 H       
  40 H40            3.3405     0.0425    -4.3189 H       
  41 H41            3.5249    -0.0935    -6.8356 H       
  42 H42            2.5147    -1.3780    -6.1287 H       
  43 H43           -0.6427     0.0867    -7.1588 H       
  44 H44            0.1327    -1.2749    -6.3135 H       
  45 H45           -0.8373     0.2162    -4.6462 H       
  46 H46           -0.0037     1.6196    -5.3645 H       
  47 H47           -0.2778     0.5300    -9.1169 H       
  48 H48            3.4540    -2.3586   -10.2061 H       
  49 H49            1.4022     3.1222     0.0054 H       
  50 H50            1.9442     1.6713     0.8825 H       
  51 H51            1.9272     1.6808    -0.8974 H       
  52 H52            0.3862    -2.2317     3.3250 H       
  53 H53            0.2287    -6.7199     1.2815 H       
  54 H54           -0.4830    -7.1369     4.2812 H       
  55 H55            0.9790    -7.6337     3.3958 H       
  56 H56            1.1201    -6.6003     4.8382 H       
  57 H57            0.8955    -0.7084   -13.2743 H       
  58 H58           -0.0416    -2.1229   -12.7364 H       
  59 H59           -0.8662    -0.7564   -13.5244 H       
@<TRIPOS>BOND
   1    1    2 1
   2    1   24 1
   3    1   33 1
   4    1   34 1
   5    2    3 1
   6    2    4 2
   7    3    9 1
   8    3    6 1
   9    4    5 1
  10    4   35 1
  11    5    6 2
  12    5    7 1
  13    7    8 ar
  14    7   25 ar
  15    8   28 ar
  16    8   36 1
  17    9   10 1
  18    9   37 1
  19    9   38 1
  20   10   11 am
  21   10   12 2
  22   11   13 1
  23   11   17 1
  24   13   14 1
  25   13   39 1
  26   13   40 1
  27   14   15 1
  28   14   41 1
  29   14   42 1
  30   15   16 1
  31   15   18 1
  32   16   17 1
  33   16   43 1
  34   16   44 1
  35   17   45 1
  36   17   46 1
  37   18   19 ar
  38   18   23 ar
  39   19   20 ar
  40   19   47 1
  41   20   21 ar
  42   20   31 1
  43   21   22 ar
  44   22   23 ar
  45   22   48 1
  46   24   49 1
  47   24   50 1
  48   24   51 1
  49   25   26 ar
  50   25   52 1
  51   26   27 ar
  52   26   30 1
  53   27   28 ar
  54   27   29 1
  55   28   53 1
  56   29   54 1
  57   29   55 1
  58   29   56 1
  59   31   32 1
  60   32   57 1
  61   32   58 1
  62   32   59 1

#	End of record

