#	Name: ASD08150260
#	Creating user name:	WinNT
#	Creation time:	15. 06. 2019 21:15

#	Modifying user name:	WinNT
#	Modification time:	15. 06. 2019 21:15

#	Program:	/corina/corina34_cracker 3.40 0067  02.08.2006

@<TRIPOS>MOLECULE
ASD08150260
  63   68    0    0    0
SMALL
NO_CHARGES


@<TRIPOS>ATOM
   1 N1            -0.0157     1.2947    -0.0273 N.2     
   2 C2             0.0018    -0.0034    -0.0519 C.2     
   3 N3             1.1489    -0.7349    -0.0683 N.am    
   4 C4             2.3561    -0.1231    -0.0595 C.2     
   5 C5             2.3709     1.3427    -0.0319 C.ar    
   6 C6             3.5671     2.0715    -0.0212 C.ar    
   7 C7             3.5179     3.4577     0.0045 C.ar    
   8 C8             2.2998     4.1172     0.0201 C.ar    
   9 C9             1.1131     3.4151     0.0105 C.ar    
  10 C10            1.1307     2.0205    -0.0163 C.ar    
  11 O11            3.3904    -0.7655    -0.0736 O.2     
  12 C12           -1.3147    -0.7368    -0.0622 C.3     
  13 S13           -2.6723     0.4601    -0.0360 S.3     
  14 N14           -5.9173     1.0928    -0.0155 N.2     
  15 C15           -7.2145     0.9880    -0.0139 C.2     
  16 N16           -7.5755    -0.3264    -0.0371 N.pl3   
  17 C17           -6.4221    -1.0693    -0.0539 C.ar    
  18 N18           -6.1430    -2.3686    -0.0789 N.ar    
  19 C19           -4.8947    -2.7869    -0.0903 C.ar    
  20 N20           -3.8686    -1.9562    -0.0784 N.ar    
  21 C21           -4.0494    -0.6389    -0.0530 C.ar    
  22 C22           -5.3651    -0.1438    -0.0397 C.ar    
  23 N23            4.7906     1.4128    -0.0359 N.pl3   
  24 C24            6.0337     2.1789    -0.1542 C.3     
  25 C25            7.2262     1.2205    -0.1457 C.3     
  26 N26            8.4727     1.9887    -0.2643 N.3     
  27 C27            9.6437     1.1333    -0.0230 C.3     
  28 C28           10.9194     1.9578    -0.2148 C.3     
  29 O29           10.8858     3.0891     0.6595 O.3     
  30 C30            9.7585     3.9442     0.4515 C.3     
  31 C31            8.4711     3.1399     0.6500 C.3     
  32 C32            1.0799    -2.1339    -0.0941 C.ar    
  33 C33            1.0486    -2.8518     1.0957 C.ar    
  34 C34            0.9805    -4.2317     1.0662 C.ar    
  35 C35            0.9436    -4.8977    -0.1453 C.ar    
  36 C36            0.9751    -4.1859    -1.3302 C.ar    
  37 C37            1.0369    -2.8060    -1.3079 C.ar    
  38 Cl38           1.0954    -2.0161     2.6166 Cl      
  39 H39            4.4358     4.0268     0.0128 H       
  40 H40            2.2793     5.1968     0.0405 H       
  41 H41            0.1716     3.9441     0.0236 H       
  42 H42           -1.3844    -1.3456    -0.9636 H       
  43 H43           -1.3797    -1.3792     0.8160 H       
  44 H44           -7.9034     1.8196     0.0032 H       
  45 H45           -8.4815    -0.6728    -0.0411 H       
  46 H46           -4.7028    -3.8495    -0.1103 H       
  47 H47            4.8215     0.4457     0.0321 H       
  48 H48            6.0263     2.7415    -1.0878 H       
  49 H49            6.1163     2.8692     0.6853 H       
  50 H50            7.2336     0.6579     0.7878 H       
  51 H51            7.1435     0.5302    -0.9853 H       
  52 H52            9.6092     0.7480     0.9961 H       
  53 H53            9.6385     0.3017    -0.7276 H       
  54 H54           11.7887     1.3430     0.0188 H       
  55 H55           10.9807     2.2983    -1.2484 H       
  56 H56            9.7882     4.7661     1.1668 H       
  57 H57            9.7861     4.3425    -0.5628 H       
  58 H58            7.6098     3.7730     0.4367 H       
  59 H59            8.4178     2.7866     1.6798 H       
  60 H60            0.9564    -4.7906     1.9901 H       
  61 H61            0.8904    -5.9762    -0.1658 H       
  62 H62            0.9469    -4.7093    -2.2745 H       
  63 H63            1.0566    -2.2508    -2.2340 H       
@<TRIPOS>BOND
   1    1    2 2
   2    1   10 1
   3    2    3 1
   4    2   12 1
   5    3    4 am
   6    3   32 1
   7    4    5 1
   8    4   11 2
   9    5    6 ar
  10    5   10 ar
  11    6    7 ar
  12    6   23 1
  13    7    8 ar
  14    7   39 1
  15    8    9 ar
  16    8   40 1
  17    9   10 ar
  18    9   41 1
  19   12   13 1
  20   12   42 1
  21   12   43 1
  22   13   21 1
  23   14   15 2
  24   14   22 1
  25   15   16 1
  26   15   44 1
  27   16   17 1
  28   16   45 1
  29   17   18 ar
  30   17   22 ar
  31   18   19 ar
  32   19   20 ar
  33   19   46 1
  34   20   21 ar
  35   21   22 ar
  36   23   24 1
  37   23   47 1
  38   24   25 1
  39   24   48 1
  40   24   49 1
  41   25   26 1
  42   25   50 1
  43   25   51 1
  44   26   27 1
  45   26   31 1
  46   27   28 1
  47   27   52 1
  48   27   53 1
  49   28   29 1
  50   28   54 1
  51   28   55 1
  52   29   30 1
  53   30   31 1
  54   30   56 1
  55   30   57 1
  56   31   58 1
  57   31   59 1
  58   32   33 ar
  59   32   37 ar
  60   33   34 ar
  61   33   38 1
  62   34   35 ar
  63   34   60 1
  64   35   36 ar
  65   35   61 1
  66   36   37 ar
  67   36   62 1
  68   37   63 1

#	End of record

