#	Name: ASD01850078
#	Creating user name:	WinNT
#	Creation time:	15. 06. 2019 19:38

#	Modifying user name:	WinNT
#	Modification time:	15. 06. 2019 19:38

#	Program:	/corina/corina34_cracker 3.40 0067  02.08.2006

@<TRIPOS>MOLECULE
ASD01850078
  60   64    0    0    0
SMALL
NO_CHARGES


@<TRIPOS>ATOM
   1 C1             8.8372     2.5870     2.6836 C.ar    
   2 C2             9.0510     3.7056     1.9006 C.ar    
   3 C3             8.0001     4.2731     1.2042 C.ar    
   4 C4             6.7358     3.7215     1.2906 C.ar    
   5 C5             6.5221     2.6019     2.0731 C.ar    
   6 C6             7.5724     2.0354     2.7704 C.ar    
   7 C7             4.0120     2.7525     0.0248 C.3     
   8 N8             4.1850     2.8656     1.4751 N.am    
   9 C9             3.4625     3.7650     2.1719 C.2     
  10 C10            3.7682     4.0128     3.6266 C.3     
  11 O11            2.5662     4.3749     1.6282 O.2     
  12 C12            3.1928     5.3678     4.0449 C.3     
  13 C13            3.1395     2.9055     4.4756 C.3     
  14 C14            3.4814     3.1416     5.9500 C.3     
  15 N15            3.0606     4.4994     6.3215 N.am    
  16 C16            3.5353     5.6318     5.5145 C.3     
  17 C17            3.1057     4.9723     9.0324 C.ar    
  18 C18            3.5285     6.2255     9.3683 C.ar    
  19 C19            4.3509     6.4018    10.4868 C.ar    
  20 C20            4.7331     5.2843    11.2535 C.ar    
  21 C21            4.2856     4.0174    10.8865 C.ar    
  22 C22            3.4797     3.8713     9.7934 C.ar    
  23 C23            4.9701     7.5630    11.1174 C.2     
  24 N24            5.6438     7.1430    12.1499 N.2     
  25 N25            5.5248     5.7544    12.2685 N.pl3   
  26 C26            5.1433     2.0009     2.1681 C.3     
  27 C27            2.5898     2.5556    -0.5038 C.3     
  28 C28            3.2970     3.8991    -0.6929 C.3     
  29 S29            2.0698     4.7488     7.6247 S.o2    
  30 O30            1.4204     5.9932     7.4028 O.2     
  31 O31            1.3668     3.5316     7.8330 O.2     
  32 C32            7.3393     0.8153     3.6238 C.3     
  33 F33            8.5552     0.3876     4.1678 F       
  34 F34            6.4515     1.1320     4.6576 F       
  35 F35            6.7950    -0.2062     2.8381 F       
  36 H36            9.6590     2.1410     3.2241 H       
  37 H37           10.0389     4.1367     1.8331 H       
  38 H38            8.1670     5.1477     0.5929 H       
  39 H39            5.9147     4.1652     0.7471 H       
  40 H40            4.8206     2.2516    -0.5075 H       
  41 H41            4.8480     4.0153     3.7754 H       
  42 H42            3.6236     6.1533     3.4241 H       
  43 H43            2.1100     5.3574     3.9199 H       
  44 H44            2.0572     2.9184     4.3465 H       
  45 H45            3.5324     1.9386     4.1613 H       
  46 H46            2.9554     2.4141     6.5682 H       
  47 H47            4.5566     3.0393     6.0967 H       
  48 H48            4.6149     5.7325     5.6257 H       
  49 H49            3.0448     6.5473     5.8453 H       
  50 H50            3.2304     7.0766     8.7740 H       
  51 H51            4.5727     3.1529    11.4667 H       
  52 H52            3.1349     2.8870     9.5128 H       
  53 H53            4.8849     8.5877    10.7870 H       
  54 H54            5.9364     5.2113    12.9588 H       
  55 H55            5.1442     1.0145     1.7043 H       
  56 H56            4.8583     1.9094     3.2162 H       
  57 H57            2.4628     1.9255    -1.3841 H       
  58 H58            1.7828     2.5102     0.2275 H       
  59 H59            2.9553     4.7376    -0.0859 H       
  60 H60            3.6353     4.1528    -1.6975 H       
@<TRIPOS>BOND
   1    1    2 ar
   2    1    6 ar
   3    1   36 1
   4    2    3 ar
   5    2   37 1
   6    3    4 ar
   7    3   38 1
   8    4    5 ar
   9    4   39 1
  10    5    6 ar
  11    5   26 1
  12    6   32 1
  13    7    8 1
  14    7   27 1
  15    7   28 1
  16    7   40 1
  17    8    9 am
  18    8   26 1
  19    9   10 1
  20    9   11 2
  21   10   12 1
  22   10   13 1
  23   10   41 1
  24   12   16 1
  25   12   42 1
  26   12   43 1
  27   13   14 1
  28   13   44 1
  29   13   45 1
  30   14   15 1
  31   14   46 1
  32   14   47 1
  33   15   29 am
  34   15   16 1
  35   16   48 1
  36   16   49 1
  37   17   29 1
  38   17   18 ar
  39   17   22 ar
  40   18   19 ar
  41   18   50 1
  42   19   20 ar
  43   19   23 1
  44   20   21 ar
  45   20   25 1
  46   21   22 ar
  47   21   51 1
  48   22   52 1
  49   23   24 2
  50   23   53 1
  51   24   25 1
  52   25   54 1
  53   26   55 1
  54   26   56 1
  55   27   28 1
  56   27   57 1
  57   27   58 1
  58   28   59 1
  59   28   60 1
  60   29   30 2
  61   29   31 2
  62   32   33 1
  63   32   34 1
  64   32   35 1

#	End of record

