#	Name: ASD01811500
#	Creating user name:	WinNT
#	Creation time:	15. 06. 2019 19:26

#	Modifying user name:	WinNT
#	Modification time:	15. 06. 2019 19:26

#	Program:	/corina/corina34_cracker 3.40 0067  02.08.2006

@<TRIPOS>MOLECULE
ASD01811500
  34   34    0    0    0
SMALL
NO_CHARGES


@<TRIPOS>ATOM
   1 N1            -0.0174     1.4297     0.0099 N.am    
   2 C2             0.0021    -0.0041     0.0020 C.3     
   3 C3            -0.1203    -0.4748     1.4568 C.3     
   4 C4             1.1635    -0.4378     2.1727 C.3     
   5 C5             1.7170     0.9874     2.1542 C.2     
   6 C6             2.2924     1.5420     0.9087 C.3     
   7 C7             1.2394     2.2254     0.0022 C.3     
   8 C8            -1.2024     2.0715     0.0189 C.2     
   9 O9            -2.2378     1.4356     0.0203 O.2     
  10 O10           -1.2390     3.4174     0.0264 O.3     
  11 O11            1.6843     1.6608     3.1562 O.2     
  12 Br12           0.8927    -1.0115     4.0335 Br      
  13 C13           -2.5502     4.0411     0.0360 C.3     
  14 C14           -3.3147     3.6021     1.2864 C.3     
  15 C15           -2.3910     5.5628     0.0435 C.3     
  16 C16           -3.3264     3.6157    -1.2120 C.3     
  17 H17           -0.8373    -0.3825    -0.5813 H       
  18 H18            0.9403    -0.3592    -0.4243 H       
  19 H19           -0.8318     0.1671     1.9761 H       
  20 H20           -0.4992    -1.4968     1.4657 H       
  21 H21            1.8708    -1.1086     1.6850 H       
  22 H22            3.0561     2.2740     1.1714 H       
  23 H23            2.7634     0.7332     0.3501 H       
  24 H24            1.6230     2.2880    -1.0161 H       
  25 H25            1.0357     3.2291     0.3753 H       
  26 H26           -2.7617     3.9052     2.1755 H       
  27 H27           -4.2990     4.0704     1.2936 H       
  28 H28           -3.4281     2.5181     1.2811 H       
  29 H29           -1.8464     5.8756    -0.8474 H       
  30 H30           -3.3753     6.0311     0.0506 H       
  31 H31           -1.8380     5.8659     0.9326 H       
  32 H32           -3.4398     2.5316    -1.2173 H       
  33 H33           -4.3107     4.0840    -1.2048 H       
  34 H34           -2.7818     3.9285    -2.1028 H       
@<TRIPOS>BOND
   1    1    2 1
   2    1    7 1
   3    1    8 am
   4    2    3 1
   5    2   17 1
   6    2   18 1
   7    3    4 1
   8    3   19 1
   9    3   20 1
  10    4    5 1
  11    4   12 1
  12    4   21 1
  13    5    6 1
  14    5   11 2
  15    6    7 1
  16    6   22 1
  17    6   23 1
  18    7   24 1
  19    7   25 1
  20    8    9 2
  21    8   10 1
  22   10   13 1
  23   13   14 1
  24   13   16 1
  25   13   15 1
  26   14   26 1
  27   14   27 1
  28   14   28 1
  29   15   29 1
  30   15   30 1
  31   15   31 1
  32   16   32 1
  33   16   33 1
  34   16   34 1

#	End of record

