#	Name: ASD08150498
#	Creating user name:	WinNT
#	Creation time:	15. 06. 2019 21:16

#	Modifying user name:	WinNT
#	Modification time:	15. 06. 2019 21:16

#	Program:	/corina/corina34_cracker 3.40 0067  02.08.2006

@<TRIPOS>MOLECULE
ASD08150498
  50   54    0    0    0
SMALL
NO_CHARGES


@<TRIPOS>ATOM
   1 N1            -0.0104     1.7287    -0.5409 N.am    
   2 C2            -0.0316     0.4435    -0.9420 C.2     
   3 C3             1.2319    -0.3743    -0.9649 C.3     
   4 C4             2.4180     0.5101    -1.3516 C.3     
   5 C5             2.3933     1.7725    -0.5312 C.ar    
   6 C6             3.5777     2.3844    -0.1406 C.ar    
   7 N7             3.5811     3.4852     0.5747 N.ar    
   8 C8             2.4465     4.0774     0.9646 C.ar    
   9 C9             1.1965     3.5140     0.6056 C.ar    
  10 C10            1.1826     2.3278    -0.1621 C.ar    
  11 C11            0.0736     5.2956     1.7642 C.ar    
  12 C12            1.3145     5.8472     2.1160 C.ar    
  13 C13            2.4757     5.2572     1.7291 C.ar    
  14 O14           -1.0791    -0.0603    -1.2878 O.2     
  15 C15           -1.1997     2.4675    -0.5112 C.ar    
  16 C16           -1.3519     3.5715    -1.3372 C.ar    
  17 C17           -2.5322     4.3012    -1.3048 C.ar    
  18 C18           -3.5570     3.9239    -0.4457 C.ar    
  19 C19           -3.4016     2.8240     0.3759 C.ar    
  20 C20           -2.2305     2.0921     0.3414 C.ar    
  21 N21           -2.6894     5.4138    -2.1345 N.pl3   
  22 C22           -4.8389     4.7154    -0.4097 C.3     
  23 C23            0.0106     4.1355     1.0132 C.ar    
  24 C24           -1.1797     5.9614     2.1997 C.2     
  25 C25           -1.2740     7.1616     2.8419 C.2     
  26 N26           -2.5822     7.4068     3.0582 N.pl3   
  27 N27           -3.3197     6.3357     2.5394 N.2     
  28 C28           -2.4882     5.4719     2.0198 C.2     
  29 C29           -3.1362     8.5897     3.7216 C.3     
  30 H30            1.4052    -0.8006     0.0232 H       
  31 H31            1.1286    -1.1797    -1.6921 H       
  32 H32            3.3478    -0.0269    -1.1638 H       
  33 H33            2.3524     0.7633    -2.4097 H       
  34 H34            4.5193     1.9433    -0.4323 H       
  35 H35            1.3473     6.7536     2.7023 H       
  36 H36            3.4224     5.6948     2.0094 H       
  37 H37           -0.5536     3.8628    -2.0038 H       
  38 H38           -4.1993     2.5330     1.0434 H       
  39 H39           -2.1124     1.2327     0.9847 H       
  40 H40           -1.9735     5.6769    -2.7338 H       
  41 H41           -3.5144     5.9233    -2.1114 H       
  42 H42           -5.5409     4.3033    -1.1345 H       
  43 H43           -5.2726     4.6593     0.5887 H       
  44 H44           -4.6303     5.7563    -0.6572 H       
  45 H45           -0.9461     3.7131     0.7433 H       
  46 H46           -0.4501     7.7997     3.1256 H       
  47 H47           -2.7569     4.5413     1.5422 H       
  48 H48           -3.3335     9.3634     2.9796 H       
  49 H49           -4.0659     8.3225     4.2239 H       
  50 H50           -2.4214     8.9633     4.4548 H       
@<TRIPOS>BOND
   1    1    2 am
   2    1   10 1
   3    1   15 1
   4    2    3 1
   5    2   14 2
   6    3    4 1
   7    3   30 1
   8    3   31 1
   9    4    5 1
  10    4   32 1
  11    4   33 1
  12    5    6 ar
  13    5   10 ar
  14    6    7 ar
  15    6   34 1
  16    7    8 ar
  17    8    9 ar
  18    8   13 ar
  19    9   10 ar
  20    9   23 ar
  21   11   12 ar
  22   11   24 1
  23   11   23 ar
  24   12   13 ar
  25   12   35 1
  26   13   36 1
  27   15   16 ar
  28   15   20 ar
  29   16   17 ar
  30   16   37 1
  31   17   18 ar
  32   17   21 1
  33   18   19 ar
  34   18   22 1
  35   19   20 ar
  36   19   38 1
  37   20   39 1
  38   21   40 1
  39   21   41 1
  40   22   42 1
  41   22   43 1
  42   22   44 1
  43   23   45 1
  44   24   25 2
  45   24   28 1
  46   25   26 1
  47   25   46 1
  48   26   27 1
  49   26   29 1
  50   27   28 2
  51   28   47 1
  52   29   48 1
  53   29   49 1
  54   29   50 1

#	End of record

