#	Name: ASD03092840
#	Creating user name:	WinNT
#	Creation time:	15. 06. 2019 20:33

#	Modifying user name:	WinNT
#	Modification time:	15. 06. 2019 20:33

#	Program:	/corina/corina34_cracker 3.40 0067  02.08.2006

@<TRIPOS>MOLECULE
ASD03092840
  46   49    0    0    0
SMALL
NO_CHARGES


@<TRIPOS>ATOM
   1 N1            -0.2819     0.8787     1.1189 N.am    
   2 S2            -0.0923    -0.3580     0.0340 S.o2    
   3 O3            -0.7672    -1.4812     0.5838 O.2     
   4 O4            -0.3950     0.1809    -1.2456 O.2     
   5 C5             1.6205    -0.7706     0.0076 C.ar    
   6 C6             2.4696    -0.1296    -0.8774 C.ar    
   7 C7             3.8114    -0.4475    -0.9037 C.ar    
   8 C8             4.3128    -1.4192    -0.0340 C.ar    
   9 C9             3.4496    -2.0621     0.8567 C.ar    
  10 C10            2.1111    -1.7300     0.8758 C.ar    
  11 C11            5.7470    -1.7650    -0.0565 C.2     
  12 S12            6.7010    -2.1330    -1.4917 S.3     
  13 C13            8.1263    -2.3758    -0.4872 C.2     
  14 N14            7.8229    -2.1818     0.7595 N.2     
  15 C15            6.5711    -1.8505     1.0334 C.2     
  16 C16            6.0974    -1.5956     2.4132 C.ar    
  17 C17            5.2508    -0.5182     2.6750 C.ar    
  18 C18            4.8123    -0.2858     3.9621 C.ar    
  19 C19            5.2108    -1.1196     4.9933 C.ar    
  20 Cl20           4.6546    -0.8215     6.6105 Cl      
  21 C21            6.0510    -2.1905     4.7392 C.ar    
  22 C22            6.4915    -2.4355     3.4550 C.ar    
  23 N23            9.3809    -2.7222    -0.9563 N.3     
  24 C24            9.8559    -1.7535    -1.9549 C.3     
  25 C25           11.2172    -2.2060    -2.4897 C.3     
  26 O26           12.1293    -2.3490    -1.3974 O.3     
  27 C27           11.6982    -3.2855    -0.4062 C.3     
  28 C28           10.3418    -2.8439     0.1497 C.3     
  29 H29            0.4876     1.2293     1.5940 H       
  30 H30           -1.1619     1.2551     1.2764 H       
  31 H31            2.0805     0.6211    -1.5494 H       
  32 H32            4.4729     0.0533    -1.5952 H       
  33 H33            3.8303    -2.8145     1.5316 H       
  34 H34            1.4436    -2.2228     1.5671 H       
  35 H35            4.9396     0.1330     1.8715 H       
  36 H36            4.1571     0.5482     4.1660 H       
  37 H37            6.3590    -2.8374     5.5473 H       
  38 H38            7.1432    -3.2737     3.2572 H       
  39 H39            9.1421    -1.6982    -2.7767 H       
  40 H40            9.9550    -0.7719    -1.4914 H       
  41 H41           11.1079    -3.1628    -3.0002 H       
  42 H42           11.5996    -1.4616    -3.1881 H       
  43 H43           11.6029    -4.2737    -0.8562 H       
  44 H44           12.4285    -3.3219     0.4022 H       
  45 H45           10.4486    -1.8798     0.6468 H       
  46 H46            9.9826    -3.5847     0.8641 H       
@<TRIPOS>BOND
   1    1    2 am
   2    1   29 1
   3    1   30 1
   4    2    3 2
   5    2    4 2
   6    2    5 1
   7    5   10 ar
   8    5    6 ar
   9    6    7 ar
  10    6   31 1
  11    7    8 ar
  12    7   32 1
  13    8    9 ar
  14    8   11 1
  15    9   10 ar
  16    9   33 1
  17   10   34 1
  18   11   15 2
  19   11   12 1
  20   12   13 1
  21   13   14 2
  22   13   23 1
  23   14   15 1
  24   15   16 1
  25   16   22 ar
  26   16   17 ar
  27   17   18 ar
  28   17   35 1
  29   18   19 ar
  30   18   36 1
  31   19   20 1
  32   19   21 ar
  33   21   22 ar
  34   21   37 1
  35   22   38 1
  36   23   28 1
  37   23   24 1
  38   24   25 1
  39   24   39 1
  40   24   40 1
  41   25   26 1
  42   25   41 1
  43   25   42 1
  44   26   27 1
  45   27   28 1
  46   27   43 1
  47   27   44 1
  48   28   45 1
  49   28   46 1

#	End of record

