#	Name: ASD04550021
#	Creating user name:	WinNT
#	Creation time:	15. 06. 2019 20:49

#	Modifying user name:	WinNT
#	Modification time:	15. 06. 2019 20:49

#	Program:	/corina/corina34_cracker 3.40 0067  02.08.2006

@<TRIPOS>MOLECULE
ASD04550021
  40   41    0    0    0
SMALL
NO_CHARGES


@<TRIPOS>ATOM
   1 C1            -0.0167     1.3779     0.0096 C.ar    
   2 C2             0.0021    -0.0041     0.0020 C.ar    
   3 C3            -1.1857    -0.7116     0.0095 C.ar    
   4 C4            -2.3919    -0.0369     0.0251 C.ar    
   5 C5            -2.4106     1.3455     0.0336 C.ar    
   6 C6            -1.2232     2.0528     0.0305 C.ar    
   7 C7            -3.7258     2.0812     0.0501 C.3     
   8 C8            -4.5344     1.7082    -1.1941 C.3     
   9 C9             1.2780     2.1491     0.0014 C.3     
  10 C10            1.7024     2.4178    -1.4438 C.3     
  11 C11            0.6792     3.3375    -2.1132 C.3     
  12 C12            3.0561     3.0800    -1.4550 C.ar    
  13 C13            4.1179     2.4715    -2.0977 C.ar    
  14 C14            5.3596     3.0789    -2.1079 C.ar    
  15 C15            5.5394     4.2950    -1.4758 C.ar    
  16 C16            4.4773     4.9040    -0.8338 C.ar    
  17 C17            3.2346     4.2987    -0.8273 C.ar    
  18 C18           -4.4997     1.6990     1.2854 C.2     
  19 O19           -4.0314     0.9101     2.0717 O.2     
  20 O20           -5.7093     2.2349     1.5121 O.3     
  21 H21            0.9446    -0.5313    -0.0101 H       
  22 H22           -1.1711    -1.7915     0.0029 H       
  23 H23           -3.3198    -0.5895     0.0302 H       
  24 H24           -1.2378     3.1327     0.0372 H       
  25 H25           -3.5412     3.1554     0.0549 H       
  26 H26           -4.7190     0.6340    -1.1989 H       
  27 H27           -5.4856     2.2403    -1.1822 H       
  28 H28           -3.9746     1.9847    -2.0876 H       
  29 H29            1.1397     3.0969     0.5217 H       
  30 H30            2.0505     1.5677     0.5048 H       
  31 H31            1.7546     1.4751    -1.9884 H       
  32 H32           -0.2999     2.8586    -2.1051 H       
  33 H33            0.6270     4.2803    -1.5685 H       
  34 H34            0.9815     3.5290    -3.1428 H       
  35 H35            3.9775     1.5213    -2.5915 H       
  36 H36            6.1894     2.6031    -2.6094 H       
  37 H37            6.5097     4.7693    -1.4831 H       
  38 H38            4.6179     5.8540    -0.3397 H       
  39 H39            2.4048     4.7744    -0.3258 H       
  40 H40           -6.1676     1.9592     2.3178 H       
@<TRIPOS>BOND
   1    1    2 ar
   2    1    9 1
   3    1    6 ar
   4    2    3 ar
   5    2   21 1
   6    3    4 ar
   7    3   22 1
   8    4    5 ar
   9    4   23 1
  10    5    6 ar
  11    5    7 1
  12    6   24 1
  13    7    8 1
  14    7   18 1
  15    7   25 1
  16    8   26 1
  17    8   27 1
  18    8   28 1
  19    9   10 1
  20    9   29 1
  21    9   30 1
  22   10   11 1
  23   10   12 1
  24   10   31 1
  25   11   32 1
  26   11   33 1
  27   11   34 1
  28   12   13 ar
  29   12   17 ar
  30   13   14 ar
  31   13   35 1
  32   14   15 ar
  33   14   36 1
  34   15   16 ar
  35   15   37 1
  36   16   17 ar
  37   16   38 1
  38   17   39 1
  39   18   19 2
  40   18   20 1
  41   20   40 1

#	End of record

