#	Name: ASD03540463
#	Creating user name:	WinNT
#	Creation time:	15. 06. 2019 20:43

#	Modifying user name:	WinNT
#	Modification time:	15. 06. 2019 20:43

#	Program:	/corina/corina34_cracker 3.40 0067  02.08.2006

@<TRIPOS>MOLECULE
ASD03540463
  43   45    0    0    0
SMALL
NO_CHARGES


@<TRIPOS>ATOM
   1 N1            -0.0161     1.3395     0.0094 N.am    
   2 C2             0.0021    -0.0041     0.0020 C.2     
   3 N3             1.1389    -0.7173    -0.0126 N.am    
   4 C4             2.3459    -0.1107    -0.0209 C.2     
   5 C5             2.3856     1.3633    -0.0133 C.ar    
   6 C6             3.5869     2.0604    -0.0206 C.ar    
   7 C7             3.5657     3.4551    -0.0124 C.ar    
   8 C8             2.3429     4.1385     0.0033 C.ar    
   9 C9             1.1618     3.4521     0.0104 C.ar    
  10 C10            1.1635     2.0628     0.0020 C.ar    
  11 C11            4.8323     4.2113    -0.0199 C.2     
  12 O12            5.8932     3.6192    -0.0332 O.2     
  13 O13            4.8127     5.5585    -0.0121 O.3     
  14 O14            3.3720    -0.7627    -0.0337 O.2     
  15 O15           -1.0577    -0.5997     0.0093 O.2     
  16 C16           -1.2992     2.0465     0.0193 C.3     
  17 C17            1.0696    -2.1807    -0.0194 C.3     
  18 C18            1.0314    -2.6828    -1.4641 C.3     
  19 S19            0.9456    -4.4948    -1.4724 S.o2    
  20 O20            2.1623    -5.0538    -0.9967 O.2     
  21 O21           -0.3088    -4.9368    -0.9721 O.2     
  22 C22            0.9082    -4.9253    -3.1806 C.ar    
  23 C23            2.0893    -5.1508    -3.8626 C.ar    
  24 C24            2.0599    -5.4885    -5.2027 C.ar    
  25 C25            0.8495    -5.6012    -5.8608 C.ar    
  26 C26           -0.3316    -5.3766    -5.1786 C.ar    
  27 C27           -0.3025    -5.0431    -3.8373 C.ar    
  28 H28            4.5268     1.5286    -0.0320 H       
  29 H29            2.3339     5.2185     0.0102 H       
  30 H30            0.2255     3.9901     0.0226 H       
  31 H31            5.6678     6.0101    -0.0175 H       
  32 H32           -2.1134     1.3218     0.0192 H       
  33 H33           -1.3653     2.6671     0.9130 H       
  34 H34           -1.3737     2.6767    -0.8669 H       
  35 H35            1.9463    -2.5883     0.4839 H       
  36 H36            0.1684    -2.5041     0.5016 H       
  37 H37            0.1547    -2.2752    -1.9674 H       
  38 H38            1.9326    -2.3594    -1.9851 H       
  39 H39            3.0350    -5.0627    -3.3485 H       
  40 H40            2.9827    -5.6640    -5.7357 H       
  41 H41            0.8266    -5.8644    -6.9080 H       
  42 H42           -1.2773    -5.4643    -5.6928 H       
  43 H43           -1.2254    -4.8713    -3.3034 H       
@<TRIPOS>BOND
   1    1    2 am
   2    1   10 1
   3    1   16 1
   4    2    3 am
   5    2   15 2
   6    3    4 am
   7    3   17 1
   8    4    5 1
   9    4   14 2
  10    5    6 ar
  11    5   10 ar
  12    6    7 ar
  13    6   28 1
  14    7    8 ar
  15    7   11 1
  16    8    9 ar
  17    8   29 1
  18    9   10 ar
  19    9   30 1
  20   11   12 2
  21   11   13 1
  22   13   31 1
  23   16   32 1
  24   16   33 1
  25   16   34 1
  26   17   18 1
  27   17   35 1
  28   17   36 1
  29   18   19 1
  30   18   37 1
  31   18   38 1
  32   19   20 2
  33   19   21 2
  34   19   22 1
  35   22   23 ar
  36   22   27 ar
  37   23   24 ar
  38   23   39 1
  39   24   25 ar
  40   24   40 1
  41   25   26 ar
  42   25   41 1
  43   26   27 ar
  44   26   42 1
  45   27   43 1

#	End of record

