#	Name: ASD02408404
#	Creating user name:	WinNT
#	Creation time:	15. 06. 2019 20:21

#	Modifying user name:	WinNT
#	Modification time:	15. 06. 2019 20:21

#	Program:	/corina/corina34_cracker 3.40 0067  02.08.2006

@<TRIPOS>MOLECULE
ASD02408404
  32   33    0    0    0
SMALL
NO_CHARGES


@<TRIPOS>ATOM
   1 C1            -0.0061     0.9819    -0.6416 C.2     
   2 C2             0.0193     0.1890     0.5300 C.2     
   3 C3             1.2994     1.4116    -0.8704 C.2     
   4 N4             2.0648     0.8988     0.1178 N.pl3   
   5 N5             1.2462     0.1478     0.9681 N.2     
   6 C6             3.4468     1.0876     0.2662 C.ar    
   7 C7             3.9902     2.3591     0.1600 C.ar    
   8 C8             5.3523     2.5427     0.3071 C.ar    
   9 C9             6.1758     1.4614     0.5595 C.ar    
  10 C10            5.6414     0.1907     0.6666 C.ar    
  11 C11            4.2765    -0.0010     0.5263 C.ar    
  12 N12            1.7296     2.2100    -1.9107 N.pl3   
  13 C13           -1.1829     1.2883    -1.4633 C.2     
  14 N14           -2.3900     0.7960    -1.1216 N.am    
  15 O15           -1.0686     1.9868    -2.4531 O.2     
  16 O16            3.7494    -1.2497     0.6317 O.3     
  17 C17            4.6615    -2.3194     0.8884 C.3     
  18 C18            3.8902    -3.6380     0.9736 C.3     
  19 H19           -0.8314    -0.2978     0.9836 H       
  20 H20            3.3493     3.2056    -0.0378 H       
  21 H21            5.7742     3.5334     0.2242 H       
  22 H22            7.2396     1.6095     0.6729 H       
  23 H23            6.2875    -0.6519     0.8639 H       
  24 H24            1.0845     2.6044    -2.5183 H       
  25 H25            2.6772     2.3768    -2.0343 H       
  26 H26           -2.4811     0.2391    -0.3325 H       
  27 H27           -3.1678     0.9985    -1.6647 H       
  28 H28            5.3909    -2.3767     0.0804 H       
  29 H29            5.1774    -2.1386     1.8314 H       
  30 H30            3.1608    -3.5807     1.7815 H       
  31 H31            3.3744    -3.8188     0.0305 H       
  32 H32            4.5860    -4.4539     1.1693 H       
@<TRIPOS>BOND
   1    1    2 1
   2    1    3 2
   3    1   13 1
   4    2    5 2
   5    2   19 1
   6    3    4 1
   7    3   12 1
   8    4    5 1
   9    4    6 1
  10    6    7 ar
  11    6   11 ar
  12    7    8 ar
  13    7   20 1
  14    8    9 ar
  15    8   21 1
  16    9   10 ar
  17    9   22 1
  18   10   11 ar
  19   10   23 1
  20   11   16 1
  21   12   24 1
  22   12   25 1
  23   13   14 am
  24   13   15 2
  25   14   26 1
  26   14   27 1
  27   16   17 1
  28   17   18 1
  29   17   28 1
  30   17   29 1
  31   18   30 1
  32   18   31 1
  33   18   32 1

#	End of record

