#	Name: ASD03330477
#	Creating user name:	WinNT
#	Creation time:	15. 06. 2019 20:37

#	Modifying user name:	WinNT
#	Modification time:	15. 06. 2019 20:37

#	Program:	/corina/corina34_cracker 3.40 0067  02.08.2006

@<TRIPOS>MOLECULE
ASD03330477
  67   70    0    0    0
SMALL
NO_CHARGES


@<TRIPOS>ATOM
   1 C1            -0.2641     2.0910    -0.6956 C.3     
   2 N2            -0.1027     0.6537    -0.4345 N.3     
   3 C3             0.3539    -0.0585    -1.6416 C.3     
   4 C4             1.5420     0.6828    -2.1984 C.2     
   5 N5             1.8755     1.9503    -1.8397 N.pl3   
   6 C6             1.1125     2.7445    -0.8726 C.3     
   7 C7             2.4587     0.2674    -3.1080 C.2     
   8 N8             3.3396     1.2769    -3.2934 N.2     
   9 C9             2.9941     2.2917    -2.5322 C.2     
  10 C10            3.7027     3.5864    -2.4446 C.ar    
  11 C11            2.4896    -1.0469    -3.7738 C.2     
  12 O12            1.6368    -1.8765    -3.5215 O.2     
  13 C13            3.4935    -2.6363    -5.3240 C.3     
  14 N14            3.4628    -1.3297    -4.6622 N.am    
  15 C15           -1.3476     0.0695     0.0822 C.3     
  16 C16            4.6411     3.9363    -3.4176 C.ar    
  17 C17            4.2192    -3.6439    -4.4301 C.3     
  18 C18            3.4132    -3.8611    -3.1478 C.3     
  19 C19            4.3636    -4.9735    -5.1731 C.3     
  20 C20            5.6063    -3.1046    -4.0753 C.3     
  21 C21            4.2203    -2.5165    -6.6387 C.2     
  22 O22            4.8147    -1.4954    -6.9122 O.2     
  23 N23            4.2097    -3.5442    -7.5106 N.am    
  24 C24            4.9822    -3.4592    -8.7525 C.3     
  25 C25            5.3003     5.1425    -3.3356 C.ar    
  26 C26            5.0309     6.0146    -2.2809 C.ar    
  27 C27            4.0940     5.6656    -1.3083 C.ar    
  28 C28            3.4298     4.4623    -1.3921 C.ar    
  29 C29            5.7412     7.3133    -2.1934 C.ar    
  30 C30            5.4743     8.1872    -1.1406 C.ar    
  31 C31            6.6826     7.6624    -3.1603 C.ar    
  32 C32            7.3410     8.8722    -3.0734 C.ar    
  33 C33            7.0682     9.7377    -2.0293 C.ar    
  34 C34            6.1388     9.3943    -1.0640 C.ar    
  35 H35           -0.8510     2.2307    -1.6035 H       
  36 H36           -0.7808     2.5560     0.1439 H       
  37 H37            0.6438    -1.0765    -1.3812 H       
  38 H38           -0.4464    -0.0805    -2.3813 H       
  39 H39            0.9916     3.7615    -1.2459 H       
  40 H40            1.6365     2.7629     0.0830 H       
  41 H41            2.4737    -2.9773    -5.5023 H       
  42 H42            4.1430    -0.6680    -4.8634 H       
  43 H43           -2.1592     0.2659    -0.6184 H       
  44 H44           -1.2221    -1.0068     0.2004 H       
  45 H45           -1.5850     0.5159     1.0478 H       
  46 H46            4.8501     3.2610    -4.2341 H       
  47 H47            2.4250    -4.2453    -3.4005 H       
  48 H48            3.9302    -4.5789    -2.5110 H       
  49 H49            3.3103    -2.9139    -2.6185 H       
  50 H50            4.8396    -4.8005    -6.1383 H       
  51 H51            4.9763    -5.6549    -4.5828 H       
  52 H52            3.3779    -5.4124    -5.3275 H       
  53 H53            5.5034    -2.1573    -3.5460 H       
  54 H54            6.1233    -3.8224    -3.4385 H       
  55 H55            6.1805    -2.9498    -4.9888 H       
  56 H56            3.6906    -4.3401    -7.3159 H       
  57 H57            4.8516    -4.3774    -9.3252 H       
  58 H58            4.6320    -2.6111    -9.3409 H       
  59 H59            6.0377    -3.3259    -8.5154 H       
  60 H60            6.0264     5.4131    -4.0879 H       
  61 H61            3.8864     6.3411    -0.4916 H       
  62 H62            2.7044     4.1922    -0.6389 H       
  63 H63            4.7486     7.9202    -0.3866 H       
  64 H64            6.8966     6.9873    -3.9756 H       
  65 H65            8.0708     9.1436    -3.8218 H       
  66 H66            7.5858    10.6834    -1.9654 H       
  67 H67            5.9295    10.0740    -0.2513 H       
@<TRIPOS>BOND
   1    1    2 1
   2    1    6 1
   3    1   35 1
   4    1   36 1
   5    2    3 1
   6    2   15 1
   7    3    4 1
   8    3   37 1
   9    3   38 1
  10    4    5 1
  11    4    7 2
  12    5    6 1
  13    5    9 1
  14    6   39 1
  15    6   40 1
  16    7    8 1
  17    7   11 1
  18    8    9 2
  19    9   10 1
  20   10   16 ar
  21   10   28 ar
  22   11   12 2
  23   11   14 am
  24   13   14 1
  25   13   17 1
  26   13   21 1
  27   13   41 1
  28   14   42 1
  29   15   43 1
  30   15   44 1
  31   15   45 1
  32   16   25 ar
  33   16   46 1
  34   17   18 1
  35   17   19 1
  36   17   20 1
  37   18   47 1
  38   18   48 1
  39   18   49 1
  40   19   50 1
  41   19   51 1
  42   19   52 1
  43   20   53 1
  44   20   54 1
  45   20   55 1
  46   21   22 2
  47   21   23 am
  48   23   24 1
  49   23   56 1
  50   24   57 1
  51   24   58 1
  52   24   59 1
  53   25   26 ar
  54   25   60 1
  55   26   27 ar
  56   26   29 1
  57   27   28 ar
  58   27   61 1
  59   28   62 1
  60   29   30 ar
  61   29   31 ar
  62   30   34 ar
  63   30   63 1
  64   31   32 ar
  65   31   64 1
  66   32   33 ar
  67   32   65 1
  68   33   34 ar
  69   33   66 1
  70   34   67 1

#	End of record

