#	Name: ASD03910046
#	Creating user name:	WinNT
#	Creation time:	15. 06. 2019 20:47

#	Modifying user name:	WinNT
#	Modification time:	15. 06. 2019 20:47

#	Program:	/corina/corina34_cracker 3.40 0067  02.08.2006

@<TRIPOS>MOLECULE
ASD03910046
  62   64    0    0    0
SMALL
NO_CHARGES


@<TRIPOS>ATOM
   1 C1            -1.6244    -1.0286     1.6004 C.ar    
   2 C2            -0.6387    -0.4441     2.3742 C.ar    
   3 C3            -0.8354     0.8127     2.9164 C.ar    
   4 C4            -2.0181     1.4881     2.6868 C.ar    
   5 C5            -3.0100     0.9038     1.9100 C.ar    
   6 C6            -2.8069    -0.3559     1.3619 C.ar    
   7 N7            -4.2093     1.5854     1.6755 N.am    
   8 C8            -4.2057     2.9253     1.5304 C.2     
   9 O9            -3.1791     3.5502     1.6938 O.2     
  10 C10           -5.2045     5.1259     1.0657 C.ar    
  11 C11           -4.8176     5.6766    -0.1421 C.ar    
  12 C12           -4.5726     7.0328    -0.2373 C.ar    
  13 C13           -4.7150     7.8424     0.8803 C.ar    
  14 C14           -5.1033     7.2874     2.0910 C.ar    
  15 C15           -5.3471     5.9306     2.1810 C.ar    
  16 O16           -4.4740     9.1767     0.7893 O.3     
  17 C17           -4.5250     9.9294     2.0029 C.3     
  18 C18           -5.8965     9.8037     2.6147 C.2     
  19 C19           -1.4058    -2.3984     1.0115 C.3     
  20 C20            0.2415     1.4459     3.7592 C.3     
  21 O21           -6.7466     9.1354     2.0655 O.2     
  22 C22           -5.4772     3.6471     1.1652 C.3     
  23 C23           -3.4789     9.3913     2.9811 C.3     
  24 C24           -4.2334    11.4011     1.7029 C.3     
  25 N25           -6.1784    10.4340     3.7722 N.am    
  26 C26           -8.6684    10.7193     3.5859 C.3     
  27 C27           -7.4751    10.2273     4.4219 C.3     
  28 C28           -7.6467     8.8276     4.9535 C.2     
  29 O29           -6.5683     8.0835     5.2449 O.3     
  30 O30           -8.7551     8.3753     5.1174 O.2     
  31 C31           -8.4835    12.0844     4.2696 C.3     
  32 C32           -7.8364    11.3230     5.4386 C.3     
  33 H33            0.2867    -0.9704     2.5559 H       
  34 H34           -2.1714     2.4693     3.1111 H       
  35 H35           -3.5762    -0.8128     0.7571 H       
  36 H36           -5.0433     1.0935     1.6173 H       
  37 H37           -4.7066     5.0459    -1.0118 H       
  38 H38           -4.2700     7.4624    -1.1809 H       
  39 H39           -5.2145     7.9155     2.9625 H       
  40 H40           -5.6494     5.4981     3.1233 H       
  41 H41           -1.7606    -3.1554     1.7109 H       
  42 H42           -1.9561    -2.4831     0.0744 H       
  43 H43           -0.3426    -2.5475     0.8232 H       
  44 H44            0.9087     2.0254     3.1210 H       
  45 H45           -0.2154     2.1033     4.4989 H       
  46 H46            0.8103     0.6671     4.2672 H       
  47 H47           -5.8410     3.2794     0.2058 H       
  48 H48           -6.2303     3.4674     1.9325 H       
  49 H49           -2.4806     9.6090     2.6016 H       
  50 H50           -3.6104     9.8682     3.9524 H       
  51 H51           -3.6005     8.3132     3.0863 H       
  52 H52           -4.9314    11.7633     0.9482 H       
  53 H53           -4.3477    11.9873     2.6147 H       
  54 H54           -3.2132    11.5011     1.3322 H       
  55 H55           -5.5227    11.0245     4.1751 H       
  56 H56           -8.4724    10.7378     2.5138 H       
  57 H57           -9.6090    10.2292     3.8369 H       
  58 H58           -6.7286     7.1918     5.5832 H       
  59 H59           -7.7944    12.7459     3.7446 H       
  60 H60           -9.4223    12.5718     4.5324 H       
  61 H61           -8.5496    10.9979     6.1960 H       
  62 H62           -6.9687    11.8289     5.8621 H       
@<TRIPOS>BOND
   1    1    2 ar
   2    1   19 1
   3    1    6 ar
   4    2    3 ar
   5    2   33 1
   6    3    4 ar
   7    3   20 1
   8    4    5 ar
   9    4   34 1
  10    5    6 ar
  11    5    7 1
  12    6   35 1
  13    7    8 am
  14    7   36 1
  15    8    9 2
  16    8   22 1
  17   10   11 ar
  18   10   15 ar
  19   10   22 1
  20   11   12 ar
  21   11   37 1
  22   12   13 ar
  23   12   38 1
  24   13   14 ar
  25   13   16 1
  26   14   15 ar
  27   14   39 1
  28   15   40 1
  29   16   17 1
  30   17   18 1
  31   17   23 1
  32   17   24 1
  33   18   21 2
  34   18   25 am
  35   19   41 1
  36   19   42 1
  37   19   43 1
  38   20   44 1
  39   20   45 1
  40   20   46 1
  41   22   47 1
  42   22   48 1
  43   23   49 1
  44   23   50 1
  45   23   51 1
  46   24   52 1
  47   24   53 1
  48   24   54 1
  49   25   27 1
  50   25   55 1
  51   26   27 1
  52   26   31 1
  53   26   56 1
  54   26   57 1
  55   27   28 1
  56   27   32 1
  57   28   29 1
  58   28   30 2
  59   29   58 1
  60   31   32 1
  61   31   59 1
  62   31   60 1
  63   32   61 1
  64   32   62 1

#	End of record

