#	Name: ASD01884926
#	Creating user name:	WinNT
#	Creation time:	15. 06. 2019 19:49

#	Modifying user name:	WinNT
#	Modification time:	15. 06. 2019 19:49

#	Program:	/corina/corina34_cracker 3.40 0067  02.08.2006

@<TRIPOS>MOLECULE
ASD01884926
  53   57    0    0    0
SMALL
NO_CHARGES


@<TRIPOS>ATOM
   1 C1            -0.0166     1.3745     0.0096 C.ar    
   2 C2             0.0021    -0.0041     0.0020 C.ar    
   3 C3            -1.1977    -0.7168     0.0101 C.ar    
   4 C4            -2.4129    -0.0322     0.0259 C.ar    
   5 C5            -2.4266     1.3463     0.0334 C.ar    
   6 C6            -1.2307     2.0546     0.0307 C.ar    
   7 C7            -1.1808    -2.1979     0.0015 C.2     
   8 C8            -1.6661    -2.9078     1.0839 C.2     
   9 C9            -0.6726    -2.9008    -1.1182 C.2     
  10 C10           -0.6590    -4.2468    -1.1243 C.2     
  11 N11           -1.1314    -4.9559    -0.0576 N.pl3   
  12 C12           -1.6371    -4.3121     1.0461 C.2     
  13 C13           -1.2394    -6.2874     0.2073 C.2     
  14 N14           -1.7711    -6.4110     1.3958 N.2     
  15 N15           -2.0110    -5.2521     1.9007 N.2     
  16 C16           -0.8227    -7.4134    -0.7036 C.3     
  17 C17           -0.8454    -8.8315    -0.1297 C.3     
  18 N18           -1.2475     3.4502     0.0388 N.pl3   
  19 C19           -2.5249     4.1674     0.0502 C.3     
  20 C20           -2.3330     5.5605    -0.5525 C.3     
  21 C21           -3.6671     6.3095    -0.5406 C.3     
  22 C22           -4.1652     6.4412     0.9001 C.3     
  23 C23           -4.3570     5.0481     1.5028 C.3     
  24 C24           -3.0229     4.2991     1.4909 C.3     
  25 C25           -1.9043    -8.4008    -1.1465 C.3     
  26 Cl26           1.4751     2.2624     0.0001 Cl      
  27 O27           -5.4112     7.1408     0.9112 O.3     
  28 C28           -2.2175    -2.1864     2.2866 C.3     
  29 F29           -3.6068    -2.0738     2.1664 F       
  30 F30           -1.9065    -2.9062     3.4453 F       
  31 F31           -1.6511    -0.9096     2.3648 F       
  32 H32            0.9443    -0.5318    -0.0105 H       
  33 H33           -3.3426    -0.5817     0.0318 H       
  34 H34           -3.3675     1.8764     0.0452 H       
  35 H35           -0.2951    -2.3549    -1.9702 H       
  36 H36           -0.2698    -4.7723    -1.9838 H       
  37 H37           -0.0373    -7.1725    -1.4200 H       
  38 H38           -0.0746    -9.5239    -0.4684 H       
  39 H39           -1.1616    -8.9501     0.9067 H       
  40 H40           -0.4133     3.9453     0.0369 H       
  41 H41           -3.2572     3.6146    -0.5383 H       
  42 H42           -1.6007     6.1133     0.0360 H       
  43 H43           -1.9782     5.4667    -1.5788 H       
  44 H44           -3.5304     7.3020    -0.9699 H       
  45 H45           -4.3994     5.7567    -1.1290 H       
  46 H46           -3.4329     6.9940     1.4886 H       
  47 H47           -4.7118     5.1420     2.5291 H       
  48 H48           -5.0893     4.4953     0.9143 H       
  49 H49           -3.1596     3.3066     1.9202 H       
  50 H50           -2.2906     4.8519     2.0794 H       
  51 H51           -2.9172    -8.2359    -0.7792 H       
  52 H52           -1.8302    -8.8098    -2.1542 H       
  53 H53           -5.7868     7.2611     1.7941 H       
@<TRIPOS>BOND
   1    1    2 ar
   2    1   26 1
   3    1    6 ar
   4    2    3 ar
   5    2   32 1
   6    3    4 ar
   7    3    7 1
   8    4    5 ar
   9    4   33 1
  10    5    6 ar
  11    5   34 1
  12    6   18 1
  13    7    8 2
  14    7    9 1
  15    8   28 1
  16    8   12 1
  17    9   10 2
  18    9   35 1
  19   10   11 1
  20   10   36 1
  21   11   12 1
  22   11   13 1
  23   12   15 2
  24   13   14 2
  25   13   16 1
  26   14   15 1
  27   16   25 1
  28   16   17 1
  29   16   37 1
  30   17   25 1
  31   17   38 1
  32   17   39 1
  33   18   19 1
  34   18   40 1
  35   19   20 1
  36   19   24 1
  37   19   41 1
  38   20   21 1
  39   20   42 1
  40   20   43 1
  41   21   22 1
  42   21   44 1
  43   21   45 1
  44   22   23 1
  45   22   27 1
  46   22   46 1
  47   23   24 1
  48   23   47 1
  49   23   48 1
  50   24   49 1
  51   24   50 1
  52   25   51 1
  53   25   52 1
  54   27   53 1
  55   28   29 1
  56   28   30 1
  57   28   31 1

#	End of record

