#	Name: ASD01440118
#	Creating user name:	WinNT
#	Creation time:	15. 06. 2019 19:21

#	Modifying user name:	WinNT
#	Modification time:	15. 06. 2019 19:21

#	Program:	/corina/corina34_cracker 3.40 0067  02.08.2006

@<TRIPOS>MOLECULE
ASD01440118
  41   43    0    0    0
SMALL
NO_CHARGES


@<TRIPOS>ATOM
   1 C1             0.2299     1.1640    -0.2575 C.ar    
   2 C2             0.2530    -0.1898    -0.0096 C.ar    
   3 C3             1.3329    -0.7583     0.6566 C.ar    
   4 C4             2.3937     0.0372     1.0753 C.ar    
   5 C5             2.3785     1.3920     0.8320 C.ar    
   6 C6             1.2946     1.9678     0.1618 C.ar    
   7 C7             1.2744     3.4190    -0.1020 C.2     
   8 O8             0.5948     3.8630    -1.0074 O.2     
   9 C9             2.0794     4.3325     0.7334 C.ar    
  10 O10            1.3515    -2.0932     0.8993 O.3     
  11 C11            2.4912    -2.6116     1.5881 C.3     
  12 C12            2.3363    -4.1000     1.7665 C.2     
  13 N13            3.2967    -4.8070     2.3942 N.am    
  14 O14            1.3472    -4.6616     1.3452 O.2     
  15 C15            2.4580     5.5838     0.2398 C.ar    
  16 C16            3.2089     6.4324     1.0240 C.ar    
  17 C17            3.5887     6.0467     2.3009 C.ar    
  18 C18            3.2161     4.8059     2.7958 C.ar    
  19 C19            2.4604     3.9514     2.0226 C.ar    
  20 F20            4.3248     6.8827     3.0653 F       
  21 C21            3.1086    -6.1702     2.6491 C.ar    
  22 C22            4.1892    -7.0427     2.6496 C.ar    
  23 N23            4.0158    -8.3271     2.8887 N.ar    
  24 C24            2.8232    -8.8333     3.1353 C.ar    
  25 C25            1.6996    -8.0284     3.1519 C.ar    
  26 C26            1.8360    -6.6708     2.9115 C.ar    
  27 H27           -0.6073     1.6041    -0.7790 H       
  28 H28           -0.5690    -0.8113    -0.3328 H       
  29 H29            3.2305    -0.4084     1.5925 H       
  30 H30            3.2025     2.0093     1.1581 H       
  31 H31            3.3907    -2.4069     1.0076 H       
  32 H32            2.5730    -2.1352     2.5651 H       
  33 H33            4.1184    -4.3711     2.6693 H       
  34 H34            2.1631     5.8850    -0.7546 H       
  35 H35            3.5024     7.3996     0.6434 H       
  36 H36            3.5153     4.5104     3.7906 H       
  37 H37            2.1668     2.9873     2.4108 H       
  38 H38            5.1814    -6.6650     2.4518 H       
  39 H39            2.7230    -9.8915     3.3265 H       
  40 H40            0.7271    -8.4522     3.3545 H       
  41 H41            0.9760    -6.0176     2.9230 H       
@<TRIPOS>BOND
   1    1    2 ar
   2    1    6 ar
   3    1   27 1
   4    2    3 ar
   5    2   28 1
   6    3    4 ar
   7    3   10 1
   8    4    5 ar
   9    4   29 1
  10    5    6 ar
  11    5   30 1
  12    6    7 1
  13    7    8 2
  14    7    9 1
  15    9   15 ar
  16    9   19 ar
  17   10   11 1
  18   11   12 1
  19   11   31 1
  20   11   32 1
  21   12   13 am
  22   12   14 2
  23   13   21 1
  24   13   33 1
  25   15   16 ar
  26   15   34 1
  27   16   17 ar
  28   16   35 1
  29   17   18 ar
  30   17   20 1
  31   18   19 ar
  32   18   36 1
  33   19   37 1
  34   21   22 ar
  35   21   26 ar
  36   22   23 ar
  37   22   38 1
  38   23   24 ar
  39   24   25 ar
  40   24   39 1
  41   25   26 ar
  42   25   40 1
  43   26   41 1

#	End of record

