#	Name: ASD08150770
#	Creating user name:	WinNT
#	Creation time:	15. 06. 2019 21:16

#	Modifying user name:	WinNT
#	Modification time:	15. 06. 2019 21:16

#	Program:	/corina/corina34_cracker 3.40 0067  02.08.2006

@<TRIPOS>MOLECULE
ASD08150770
  43   47    0    0    0
SMALL
NO_CHARGES


@<TRIPOS>ATOM
   1 C1            -0.0158     1.3168     0.0093 C.2     
   2 N2             0.0021    -0.0041     0.0020 N.2     
   3 C3             1.1387    -0.6846    -0.0125 C.2     
   4 C4             2.3424     0.0131    -0.0203 C.2     
   5 C5             2.3160     1.4197    -0.0125 C.2     
   6 N6             1.1169     2.0725     0.0025 N.am    
   7 S7            -1.3640     2.4677     0.0210 S.3     
   8 C8             0.9183     3.4311     0.0118 C.2     
   9 C9            -0.3178     3.8980     0.0246 C.2     
  10 O10            3.3590     2.0528    -0.0187 O.2     
  11 C11            1.1279    -2.1915    -0.0200 C.3     
  12 C12            0.5274    -2.7038     1.2907 C.3     
  13 N13            0.3212    -2.6685    -1.1460 N.pl3   
  14 N14           -1.2280    -3.8951    -3.5011 N.2     
  15 C15           -1.5789    -4.7658    -4.4024 C.2     
  16 N16           -0.8039    -5.8824    -4.2979 N.pl3   
  17 C17            0.0759    -5.6772    -3.2653 C.ar    
  18 N18            1.0490    -6.3888    -2.7061 N.ar    
  19 C19            1.7393    -5.9038    -1.6955 C.ar    
  20 N20            1.5083    -4.7064    -1.1891 N.ar    
  21 C21            0.5554    -3.9223    -1.6830 C.ar    
  22 C22           -0.2085    -4.3960    -2.7629 C.ar    
  23 C23            3.6328    -0.7145    -0.0361 C.ar    
  24 C24            4.4822    -0.6084    -1.1368 C.ar    
  25 C25            5.6853    -1.2888    -1.1466 C.ar    
  26 C26            6.0478    -2.0750    -0.0652 C.ar    
  27 C27            5.2072    -2.1840     1.0305 C.ar    
  28 C28            4.0046    -1.5030     1.0522 C.ar    
  29 F29            5.5660    -2.9527     2.0819 F       
  30 F30            6.5089    -1.1871    -2.2127 F       
  31 H31            1.7598     4.1080     0.0074 H       
  32 H32           -0.6257     4.9332     0.0310 H       
  33 H33            2.1481    -2.5617    -0.1214 H       
  34 H34           -0.4928    -2.3336     1.3921 H       
  35 H35            0.5197    -3.7937     1.2853 H       
  36 H36            1.1277    -2.3489     2.1285 H       
  37 H37           -0.3771    -2.1056    -1.5152 H       
  38 H38           -2.3681    -4.6248    -5.1261 H       
  39 H39           -0.8637    -6.6765    -4.8517 H       
  40 H40            2.5235    -6.5081    -1.2641 H       
  41 H41            4.2003     0.0041    -1.9805 H       
  42 H42            6.9887    -2.6051    -0.0766 H       
  43 H43            3.3521    -1.5847     1.9089 H       
@<TRIPOS>BOND
   1    1    2 2
   2    1    6 1
   3    1    7 1
   4    2    3 1
   5    3    4 2
   6    3   11 1
   7    4    5 1
   8    4   23 1
   9    5    6 am
  10    5   10 2
  11    6    8 1
  12    7    9 1
  13    8    9 2
  14    8   31 1
  15    9   32 1
  16   11   12 1
  17   11   13 1
  18   11   33 1
  19   12   34 1
  20   12   35 1
  21   12   36 1
  22   13   21 1
  23   13   37 1
  24   14   15 2
  25   14   22 1
  26   15   16 1
  27   15   38 1
  28   16   17 1
  29   16   39 1
  30   17   18 ar
  31   17   22 ar
  32   18   19 ar
  33   19   20 ar
  34   19   40 1
  35   20   21 ar
  36   21   22 ar
  37   23   24 ar
  38   23   28 ar
  39   24   25 ar
  40   24   41 1
  41   25   26 ar
  42   25   30 1
  43   26   27 ar
  44   26   42 1
  45   27   28 ar
  46   27   29 1
  47   28   43 1

#	End of record

