#	Name: ASD00431108
#	Creating user name:	WinNT
#	Creation time:	15. 06. 2019 18:35

#	Modifying user name:	WinNT
#	Modification time:	15. 06. 2019 18:35

#	Program:	/corina/corina34_cracker 3.40 0067  02.08.2006

@<TRIPOS>MOLECULE
ASD00431108
  41   43    0    0    0
SMALL
NO_CHARGES


@<TRIPOS>ATOM
   1 C1             0.3330     0.6810     0.3117 C.3     
   2 C2             0.4450    -0.7789     0.7557 C.3     
   3 C3             1.7067     1.2991     0.2667 C.ar    
   4 C4             2.1376     2.0966     1.3121 C.ar    
   5 C5             3.3941     2.6651     1.2774 C.ar    
   6 C6             4.2312     2.4343     0.1845 C.ar    
   7 C7             3.7902     1.6288    -0.8668 C.ar    
   8 C8             2.5334     1.0621    -0.8171 C.ar    
   9 S9             6.2897     4.0770     1.3748 S.3     
  10 C10            7.7191     4.2191     0.4481 C.2     
  11 N11            7.6113     3.5418    -0.6524 N.2     
  12 C12            6.4805     2.8981    -0.8520 C.2     
  13 C13            5.5784     3.0406     0.1403 C.2     
  14 O14            8.8088     4.9372     0.8113 O.3     
  15 C15            9.8299     5.0427    -0.0801 C.ar    
  16 C16            9.7175     5.8994    -1.1655 C.ar    
  17 C17           10.7548     6.0065    -2.0711 C.ar    
  18 C18           11.9088     5.2572    -1.8956 C.ar    
  19 C19           12.0214     4.4006    -0.8104 C.ar    
  20 C20           10.9866     4.2980     0.0987 C.ar    
  21 O21           12.9297     5.3620    -2.7876 O.3     
  22 C22           14.0881     4.5612    -2.5450 C.3     
  23 N23           -0.2751     0.7413    -1.0241 N.3     
  24 H24           -0.2891     1.2292     1.0192 H       
  25 H25           -0.5485    -1.2260     0.7882 H       
  26 H26            1.0672    -1.3271     0.0482 H       
  27 H27            0.8962    -0.8236     1.7469 H       
  28 H28            1.4888     2.2746     2.1569 H       
  29 H29            3.7292     3.2877     2.0938 H       
  30 H30            4.4329     1.4466    -1.7155 H       
  31 H31            2.1925     0.4353    -1.6279 H       
  32 H32            6.2912     2.3066    -1.7355 H       
  33 H33            8.8187     6.4823    -1.3026 H       
  34 H34           10.6673     6.6734    -2.9160 H       
  35 H35           12.9198     3.8170    -0.6740 H       
  36 H36           11.0760     3.6344     0.9460 H       
  37 H37           14.5160     4.8249    -1.5778 H       
  38 H38           13.8077     3.5079    -2.5432 H       
  39 H39           14.8241     4.7400    -3.3289 H       
  40 H40            0.3150     0.2954    -1.7105 H       
  41 H41           -1.1976     0.3326    -1.0203 H       
@<TRIPOS>BOND
   1    1    2 1
   2    1    3 1
   3    1   23 1
   4    1   24 1
   5    2   25 1
   6    2   26 1
   7    2   27 1
   8    3    4 ar
   9    3    8 ar
  10    4    5 ar
  11    4   28 1
  12    5    6 ar
  13    5   29 1
  14    6    7 ar
  15    6   13 1
  16    7    8 ar
  17    7   30 1
  18    8   31 1
  19    9   10 1
  20    9   13 1
  21   10   11 2
  22   10   14 1
  23   11   12 1
  24   12   13 2
  25   12   32 1
  26   14   15 1
  27   15   16 ar
  28   15   20 ar
  29   16   17 ar
  30   16   33 1
  31   17   18 ar
  32   17   34 1
  33   18   19 ar
  34   18   21 1
  35   19   20 ar
  36   19   35 1
  37   20   36 1
  38   21   22 1
  39   22   37 1
  40   22   38 1
  41   22   39 1
  42   23   40 1
  43   23   41 1

#	End of record

