#	Name: ASD01200117
#	Creating user name:	WinNT
#	Creation time:	15. 06. 2019 19:08

#	Modifying user name:	WinNT
#	Modification time:	15. 06. 2019 19:08

#	Program:	/corina/corina34_cracker 3.40 0067  02.08.2006

@<TRIPOS>MOLECULE
ASD01200117
  43   46    0    0    0
SMALL
NO_CHARGES


@<TRIPOS>ATOM
   1 C1            -0.0167     1.3792     0.0096 C.ar    
   2 C2             0.0021    -0.0041     0.0020 C.ar    
   3 C3             1.2087    -0.6842    -0.0132 C.ar    
   4 C4             2.3920     0.0166    -0.0208 C.ar    
   5 C5             2.3846     1.4137    -0.0132 C.ar    
   6 C6             1.1648     2.0919     0.0022 C.ar    
   7 C7             3.8409    -0.4021    -0.0369 C.3     
   8 N8             4.6266     0.8371    -0.0378 N.am    
   9 C9             3.7832     1.8837    -0.0241 C.2     
  10 O10            4.1240     3.0505    -0.0207 O.2     
  11 S11            4.2232    -1.3815     1.4413 S.3     
  12 C12            6.0892     0.9201    -0.0514 C.3     
  13 C13            6.5770     0.9561    -1.4768 C.2     
  14 C14            6.7643     2.0627    -2.1976 C.2     
  15 C15            7.2197     1.8487    -3.4872 C.2     
  16 C16            7.4022     0.5683    -3.8135 C.2     
  17 S17            6.9938    -0.4540    -2.4418 S.3     
  18 C18            3.6289    -3.0373     0.9988 C.3     
  19 C19            3.8791    -3.9837     2.1445 C.2     
  20 O20            4.4063    -3.5809     3.1596 O.2     
  21 N21            3.5169    -5.2777     2.0411 N.am    
  22 C22            3.7475    -6.1502     3.0974 C.ar    
  23 N23            3.3853    -7.4183     2.9789 N.ar    
  24 C24            3.5907    -8.2754     3.9652 C.ar    
  25 C25            4.1927    -7.8314     5.1321 C.ar    
  26 C26            4.5591    -6.4976     5.2222 C.ar    
  27 N27            4.3292    -5.6948     4.1963 N.ar    
  28 H28           -0.9607     1.9038     0.0169 H       
  29 H29           -0.9267    -0.5552     0.0083 H       
  30 H30            1.2202    -1.7641    -0.0188 H       
  31 H31            1.1457     3.1718     0.0078 H       
  32 H32            4.0535    -0.9810    -0.9357 H       
  33 H33            6.4065     1.8264     0.4643 H       
  34 H34            6.5072     0.0493     0.4538 H       
  35 H35            6.5747     3.0508    -1.8050 H       
  36 H36            7.4123     2.6571    -4.1769 H       
  37 H37            7.7509     0.2137    -4.7722 H       
  38 H38            2.5601    -2.9956     0.7887 H       
  39 H39            4.1596    -3.3894     0.1142 H       
  40 H40            3.0951    -5.5999     1.2292 H       
  41 H41            3.2928    -9.3084     3.8626 H       
  42 H42            4.3720    -8.5096     5.9533 H       
  43 H43            5.0301    -6.1193     6.1174 H       
@<TRIPOS>BOND
   1    1    2 ar
   2    1    6 ar
   3    1   28 1
   4    2    3 ar
   5    2   29 1
   6    3    4 ar
   7    3   30 1
   8    4    5 ar
   9    4    7 1
  10    5    6 ar
  11    5    9 1
  12    6   31 1
  13    7    8 1
  14    7   11 1
  15    7   32 1
  16    8    9 am
  17    8   12 1
  18    9   10 2
  19   11   18 1
  20   12   13 1
  21   12   33 1
  22   12   34 1
  23   13   14 2
  24   13   17 1
  25   14   15 1
  26   14   35 1
  27   15   16 2
  28   15   36 1
  29   16   17 1
  30   16   37 1
  31   18   19 1
  32   18   38 1
  33   18   39 1
  34   19   20 2
  35   19   21 am
  36   21   22 1
  37   21   40 1
  38   22   23 ar
  39   22   27 ar
  40   23   24 ar
  41   24   25 ar
  42   24   41 1
  43   25   26 ar
  44   25   42 1
  45   26   27 ar
  46   26   43 1

#	End of record

