#	Name: ASD01918565
#	Creating user name:	WinNT
#	Creation time:	15. 06. 2019 20:11

#	Modifying user name:	WinNT
#	Modification time:	15. 06. 2019 20:11

#	Program:	/corina/corina34_cracker 3.40 0067  02.08.2006

@<TRIPOS>MOLECULE
ASD01918565
  40   43    0    0    0
SMALL
NO_CHARGES


@<TRIPOS>ATOM
   1 N1             0.4125     0.8009    -0.8334 N.ar    
   2 C2             0.5154    -0.4835    -0.5804 C.ar    
   3 C3             1.6977    -1.0428    -0.1034 C.ar    
   4 C4             2.7888    -0.2492     0.1127 C.ar    
   5 C5             2.6731     1.1286    -0.1604 C.ar    
   6 C6             3.7506     2.0018     0.0372 C.ar    
   7 C7             3.6167     3.3550    -0.2376 C.ar    
   8 C8             2.4099     3.8823    -0.7172 C.ar    
   9 C9             1.3168     3.0588    -0.9287 C.ar    
  10 C10            1.4386     1.6289    -0.6442 C.ar    
  11 C11            0.0482     3.6153    -1.4327 C.2     
  12 O12           -0.9064     2.8844    -1.6155 O.2     
  13 N13           -0.0538     4.9342    -1.6909 N.am    
  14 C14            4.7665     4.2562    -0.0205 C.2     
  15 O15            5.6465     3.9421     0.7571 O.2     
  16 C16            4.9923     7.8664    -2.0674 C.ar    
  17 N17            4.2469     6.8977    -2.5625 N.ar    
  18 C18            4.1463     5.7338    -1.9452 C.ar    
  19 C19            4.8470     5.5394    -0.7483 C.ar    
  20 C20            5.6259     6.5963    -0.2607 C.ar    
  21 N21            5.6686     7.7265    -0.9439 N.ar    
  22 S22           -2.6659     4.5502    -2.4665 S.3     
  23 C23           -1.2490     5.4585    -2.1657 C.2     
  24 N24           -1.4529     6.7080    -2.4449 N.2     
  25 C25           -2.6533     7.0332    -2.8868 C.2     
  26 C26           -3.5042     6.0100    -2.9858 C.2     
  27 C27           -3.0326     8.4459    -3.2495 C.3     
  28 H28           -0.3393    -1.1225    -0.7463 H       
  29 H29            1.7523    -2.1028     0.0960 H       
  30 H30            3.7139    -0.6659     0.4828 H       
  31 H31            4.6908     1.6193     0.4060 H       
  32 H32            2.3317     4.9397    -0.9230 H       
  33 H33            0.7076     5.5172    -1.5451 H       
  34 H34            5.0546     8.8030    -2.6016 H       
  35 H35            3.5335     4.9454    -2.3567 H       
  36 H36            6.1822     6.4894     0.6588 H       
  37 H37           -4.5279     6.0669    -3.3251 H       
  38 H38           -2.8135     8.6220    -4.3026 H       
  39 H39           -4.0976     8.5935    -3.0704 H       
  40 H40           -2.4611     9.1440    -2.6378 H       
@<TRIPOS>BOND
   1    1    2 ar
   2    1   10 ar
   3    2    3 ar
   4    2   28 1
   5    3    4 ar
   6    3   29 1
   7    4    5 ar
   8    4   30 1
   9    5    6 ar
  10    5   10 ar
  11    6    7 ar
  12    6   31 1
  13    7    8 ar
  14    7   14 1
  15    8    9 ar
  16    8   32 1
  17    9   10 ar
  18    9   11 1
  19   11   12 2
  20   11   13 am
  21   13   23 1
  22   13   33 1
  23   14   15 2
  24   14   19 1
  25   16   17 ar
  26   16   21 ar
  27   16   34 1
  28   17   18 ar
  29   18   19 ar
  30   18   35 1
  31   19   20 ar
  32   20   21 ar
  33   20   36 1
  34   22   23 1
  35   22   26 1
  36   23   24 2
  37   24   25 1
  38   25   26 2
  39   25   27 1
  40   26   37 1
  41   27   38 1
  42   27   39 1
  43   27   40 1

#	End of record

