#	Name: ASD08830004
#	Creating user name:	WinNT
#	Creation time:	15. 06. 2019 21:19

#	Modifying user name:	WinNT
#	Modification time:	15. 06. 2019 21:19

#	Program:	/corina/corina34_cracker 3.40 0067  02.08.2006

@<TRIPOS>MOLECULE
ASD08830004
  39   41    0    0    0
SMALL
NO_CHARGES


@<TRIPOS>ATOM
   1 C1            -0.0184     1.5033     0.0103 C.2     
   2 C2             0.0021    -0.0041     0.0020 C.3     
   3 O3            -1.1337    -0.5043     0.7119 O.3     
   4 C4            -2.3339     0.0603     0.4200 C.ar    
   5 C5            -2.3882     1.4120     0.0684 C.ar    
   6 N6            -1.2003     2.1570     0.0308 N.am    
   7 C7            -3.4976    -0.6944     0.4688 C.ar    
   8 C8            -4.7104    -0.1141     0.1704 C.ar    
   9 C9            -4.7729     1.2393    -0.1834 C.ar    
  10 C10           -3.5990     2.0020    -0.2313 C.ar    
  11 C11           -6.0662     1.8578    -0.5029 C.2     
  12 C12           -7.3281     1.0356    -0.4502 C.3     
  13 C13           -8.5244     1.9132    -0.8238 C.3     
  14 N14           -9.7545     1.1118    -0.7725 N.3     
  15 C15          -10.9451     1.9659    -0.8917 C.3     
  16 C16           -9.8098     0.3097     0.4583 C.3     
  17 C17          -11.0749    -0.5524     0.4428 C.3     
  18 O18          -12.2195     0.2922     0.2951 O.3     
  19 C19          -12.1988     1.0872    -0.8936 C.3     
  20 O20           -6.1185     3.0303    -0.8091 O.2     
  21 O21            1.0222     2.1265     0.0037 O.2     
  22 H22           -0.0271    -0.3616    -1.0273 H       
  23 H23            0.9145    -0.3572     0.4825 H       
  24 H24           -1.2273     3.1264     0.0126 H       
  25 H25           -3.4519    -1.7385     0.7409 H       
  26 H26           -5.6145    -0.7037     0.2089 H       
  27 H27           -3.6411     3.0463    -0.5033 H       
  28 H28           -7.2514     0.2069    -1.1541 H       
  29 H29           -7.4651     0.6446     0.5579 H       
  30 H30           -8.6010     2.7419    -0.1199 H       
  31 H31           -8.3874     2.3043    -1.8320 H       
  32 H32          -10.9848     2.6548    -0.0479 H       
  33 H33          -10.8956     2.5315    -1.8221 H       
  34 H34           -8.9316    -0.3336     0.5133 H       
  35 H35           -9.8313     0.9721     1.3237 H       
  36 H36          -11.0285    -1.2518    -0.3919 H       
  37 H37          -11.1495    -1.1061     1.3788 H       
  38 H38          -13.0863     1.7193    -0.9242 H       
  39 H39          -12.1851     0.4354    -1.7672 H       
@<TRIPOS>BOND
   1    1    2 1
   2    1   21 2
   3    1    6 am
   4    2    3 1
   5    2   22 1
   6    2   23 1
   7    3    4 1
   8    4    5 ar
   9    4    7 ar
  10    5    6 1
  11    5   10 ar
  12    6   24 1
  13    7    8 ar
  14    7   25 1
  15    8    9 ar
  16    8   26 1
  17    9   10 ar
  18    9   11 1
  19   10   27 1
  20   11   12 1
  21   11   20 2
  22   12   13 1
  23   12   28 1
  24   12   29 1
  25   13   14 1
  26   13   30 1
  27   13   31 1
  28   14   15 1
  29   14   16 1
  30   15   19 1
  31   15   32 1
  32   15   33 1
  33   16   17 1
  34   16   34 1
  35   16   35 1
  36   17   18 1
  37   17   36 1
  38   17   37 1
  39   18   19 1
  40   19   38 1
  41   19   39 1

#	End of record

