#	Name: ASD02039323
#	Creating user name:	WinNT
#	Creation time:	15. 06. 2019 20:18

#	Modifying user name:	WinNT
#	Modification time:	15. 06. 2019 20:18

#	Program:	/corina/corina34_cracker 3.40 0067  02.08.2006

@<TRIPOS>MOLECULE
ASD02039323
  50   52    0    0    0
SMALL
NO_CHARGES


@<TRIPOS>ATOM
   1 C1             0.0942     0.6463    -0.4573 C.ar    
   2 C2             0.5344    -0.6655    -0.5599 C.ar    
   3 C3            -0.3844    -1.6733    -0.7885 C.ar    
   4 C4            -2.1311    -0.1641    -0.8076 C.ar    
   5 C5            -1.2607     0.9004    -0.5833 C.ar    
   6 C6            -3.5855     0.0915    -0.9453 C.ar    
   7 C7             1.0685     1.7686    -0.2081 C.3     
   8 N8             1.5470     2.2934    -1.4895 N.am    
   9 C9             0.8301     3.3895    -2.1458 C.3     
  10 C10            2.6469     1.7679    -2.0644 C.2     
  11 C11            3.0791     2.2365    -3.3926 C.2     
  12 C12            4.1034     1.7248    -4.1343 C.2     
  13 N13            2.5269     3.2524    -4.1040 N.2     
  14 C14            3.1706     3.3773    -5.2285 C.2     
  15 N15            4.1565     2.4441    -5.2799 N.pl3   
  16 O16            3.2826     0.9068    -1.4868 O.2     
  17 C17            5.1071     2.2512    -6.3778 C.3     
  18 C18           -4.4632    -0.9678    -1.1698 C.ar    
  19 C19           -4.0794     1.3911    -0.8449 C.ar    
  20 C20           -5.4330     1.6242    -0.9732 C.ar    
  21 C21           -6.3013     0.5687    -1.2015 C.ar    
  22 C22           -5.8153    -0.7255    -1.2968 C.ar    
  23 N23           -1.6682    -1.4034    -0.9100 N.ar    
  24 F24           -7.6263     0.8014    -1.3261 F       
  25 C25            0.8404     5.8474    -2.5945 C.3     
  26 C26            1.5118     4.7177    -1.8109 C.3     
  27 C27            1.3853     4.9920    -0.3111 C.3     
  28 H28            1.5848    -0.8973    -0.4625 H       
  29 H29           -0.0450    -2.6954    -0.8688 H       
  30 H30           -1.6388     1.9086    -0.4998 H       
  31 H31            0.5721     2.5641     0.3477 H       
  32 H32            1.9137     1.3945     0.3697 H       
  33 H33            0.8421     3.2368    -3.2250 H       
  34 H34           -0.2012     3.4115    -1.7935 H       
  35 H35            4.7487     0.9034    -3.8598 H       
  36 H36            2.9539     4.1036    -5.9978 H       
  37 H37            5.9914     2.8645    -6.2047 H       
  38 H38            5.3969     1.2016    -6.4274 H       
  39 H39            4.6403     2.5441    -7.3183 H       
  40 H40           -4.0852    -1.9767    -1.2445 H       
  41 H41           -3.4034     2.2142    -0.6666 H       
  42 H42           -5.8166     2.6307    -0.8951 H       
  43 H43           -6.4956    -1.5451    -1.4752 H       
  44 H44           -0.2138     5.9014    -2.3227 H       
  45 H45            1.3261     6.7935    -2.3559 H       
  46 H46            0.9306     5.6519    -3.6630 H       
  47 H47            2.5660     4.6636    -2.0827 H       
  48 H48            1.8710     5.9382    -0.0725 H       
  49 H49            0.3311     5.0461    -0.0393 H       
  50 H50            1.8636     4.1872     0.2471 H       
@<TRIPOS>BOND
   1    1    2 ar
   2    1    7 1
   3    1    5 ar
   4    2    3 ar
   5    2   28 1
   6    3   23 ar
   7    3   29 1
   8    4    5 ar
   9    4    6 1
  10    4   23 ar
  11    5   30 1
  12    6   18 ar
  13    6   19 ar
  14    7    8 1
  15    7   31 1
  16    7   32 1
  17    8    9 1
  18    8   10 am
  19    9   26 1
  20    9   33 1
  21    9   34 1
  22   10   11 1
  23   10   16 2
  24   11   12 2
  25   11   13 1
  26   12   15 1
  27   12   35 1
  28   13   14 2
  29   14   15 1
  30   14   36 1
  31   15   17 1
  32   17   37 1
  33   17   38 1
  34   17   39 1
  35   18   22 ar
  36   18   40 1
  37   19   20 ar
  38   19   41 1
  39   20   21 ar
  40   20   42 1
  41   21   22 ar
  42   21   24 1
  43   22   43 1
  44   25   26 1
  45   25   44 1
  46   25   45 1
  47   25   46 1
  48   26   27 1
  49   26   47 1
  50   27   48 1
  51   27   49 1
  52   27   50 1

#	End of record

