#	Name: ASD01180292
#	Creating user name:	WinNT
#	Creation time:	15. 06. 2019 19:07

#	Modifying user name:	WinNT
#	Modification time:	15. 06. 2019 19:07

#	Program:	/corina/corina34_cracker 3.40 0067  02.08.2006

@<TRIPOS>MOLECULE
ASD01180292
  70   73    0    0    0
SMALL
NO_CHARGES


@<TRIPOS>ATOM
   1 C1            -2.2148    -1.0435    -4.1946 C.2     
   2 C2            -1.6430    -1.8030    -3.0662 C.ar    
   3 C3            -0.6969    -2.8140    -3.2954 C.ar    
   4 C4            -0.1931    -3.4928    -2.2191 C.ar    
   5 C5            -0.6305    -3.1635    -0.9371 C.ar    
   6 N6            -1.5260    -2.2040    -0.7482 N.ar    
   7 C7            -2.0311    -1.5225    -1.7553 C.ar    
   8 O8            -1.8668    -1.2917    -5.3329 O.2     
   9 N9            -3.1269    -0.0784    -3.9639 N.am    
  10 N10           -0.1230    -3.8482     0.1541 N.pl3   
  11 C11            0.9510    -4.8274    -0.0303 C.3     
  12 C12            1.7175    -4.9970     1.2829 C.3     
  13 C13            2.3799    -3.6708     1.6617 C.3     
  14 C14            3.0292    -3.8007     3.0410 C.3     
  15 C15           -0.7289    -8.5823    -1.1955 C.ar    
  16 C16            0.4507    -8.1313    -1.7842 C.ar    
  17 C17            0.9888    -6.9185    -1.4040 C.ar    
  18 C18            0.3589    -6.1510    -0.4409 C.ar    
  19 C19           -0.8121    -6.5941     0.1470 C.ar    
  20 C20           -1.3589    -7.8054    -0.2255 C.ar    
  21 C21           -1.3154    -9.8826    -1.6046 C.ar    
  22 C22           -2.4950   -10.3337    -1.0159 C.ar    
  23 C23           -3.0361   -11.5439    -1.4002 C.ar    
  24 C24           -2.4093   -12.3087    -2.3674 C.ar    
  25 C25           -1.2379   -11.8660    -2.9547 C.ar    
  26 C26           -0.6916   -10.6542    -2.5828 C.ar    
  27 C27           -3.0047   -13.6294    -2.7824 C.3     
  28 F28           -3.8894   -13.4281    -3.8472 F       
  29 F29           -1.9824   -14.4964    -3.1830 F       
  30 F30           -3.6948   -14.1899    -1.7022 F       
  31 C31            3.4497    -3.3208     0.6254 C.3     
  32 C32           -3.6946     0.6757    -5.0843 C.3     
  33 C33           -4.6967     1.7022    -4.5524 C.3     
  34 C34           -5.2807     2.4780    -5.7049 C.2     
  35 O35           -4.9299     2.2339    -6.8399 O.2     
  36 N36           -6.1928     3.4431    -5.4743 N.am    
  37 N37           -6.4352     3.9949    -7.8460 N.pl3   
  38 N38           -7.2265     4.9388    -8.5237 N.2     
  39 N39           -7.9051     5.5687    -7.6267 N.2     
  40 N40           -7.6228     5.1193    -6.4573 N.2     
  41 C41           -6.7309     4.1578    -6.5362 C.2     
  42 H42           -0.3739    -3.0510    -4.2983 H       
  43 H43            0.5361    -4.2765    -2.3617 H       
  44 H44           -2.7548    -0.7436    -1.5658 H       
  45 H45           -3.4074     0.1168    -3.0562 H       
  46 H46           -0.4786    -3.6796     1.0406 H       
  47 H47            1.6322    -4.4777    -0.8061 H       
  48 H48            1.0264    -5.2961     2.0710 H       
  49 H49            2.4828    -5.7634     1.1606 H       
  50 H50            1.6271    -2.8829     1.6872 H       
  51 H51            3.7819    -4.5886     3.0155 H       
  52 H52            3.5011    -2.8559     3.3109 H       
  53 H53            2.2670    -4.0501     3.7793 H       
  54 H54            0.9433    -8.7297    -2.5363 H       
  55 H55            1.9030    -6.5679    -1.8596 H       
  56 H56           -1.2995    -5.9911     0.8988 H       
  57 H57           -2.2736    -8.1501     0.2337 H       
  58 H58           -2.9849    -9.7376    -0.2602 H       
  59 H59           -3.9504   -11.8945    -0.9446 H       
  60 H60           -0.7524   -12.4673    -3.7091 H       
  61 H61            0.2204   -10.3071    -3.0457 H       
  62 H62            2.9808    -3.1852    -0.3492 H       
  63 H63            3.9516    -2.3987     0.9186 H       
  64 H64            4.1787    -4.1291     0.5685 H       
  65 H65           -2.8955     1.1906    -5.6177 H       
  66 H66           -4.2021    -0.0094    -5.7634 H       
  67 H67           -5.4958     1.1873    -4.0190 H       
  68 H68           -4.1892     2.3873    -3.8733 H       
  69 H69           -6.4733     3.6383    -4.5665 H       
  70 H70           -5.8134     3.3599    -8.2348 H       
@<TRIPOS>BOND
   1    1    2 1
   2    1    8 2
   3    1    9 am
   4    2    3 ar
   5    2    7 ar
   6    3    4 ar
   7    3   42 1
   8    4    5 ar
   9    4   43 1
  10    5    6 ar
  11    5   10 1
  12    6    7 ar
  13    7   44 1
  14    9   32 1
  15    9   45 1
  16   10   11 1
  17   10   46 1
  18   11   12 1
  19   11   18 1
  20   11   47 1
  21   12   13 1
  22   12   48 1
  23   12   49 1
  24   13   14 1
  25   13   31 1
  26   13   50 1
  27   14   51 1
  28   14   52 1
  29   14   53 1
  30   15   16 ar
  31   15   20 ar
  32   15   21 1
  33   16   17 ar
  34   16   54 1
  35   17   18 ar
  36   17   55 1
  37   18   19 ar
  38   19   20 ar
  39   19   56 1
  40   20   57 1
  41   21   22 ar
  42   21   26 ar
  43   22   23 ar
  44   22   58 1
  45   23   24 ar
  46   23   59 1
  47   24   25 ar
  48   24   27 1
  49   25   26 ar
  50   25   60 1
  51   26   61 1
  52   27   28 1
  53   27   29 1
  54   27   30 1
  55   31   62 1
  56   31   63 1
  57   31   64 1
  58   32   33 1
  59   32   65 1
  60   32   66 1
  61   33   34 1
  62   33   67 1
  63   33   68 1
  64   34   35 2
  65   34   36 am
  66   36   41 1
  67   36   69 1
  68   37   38 1
  69   37   41 1
  70   37   70 1
  71   38   39 2
  72   39   40 1
  73   40   41 2

#	End of record

