#	Name: ASD00431064
#	Creating user name:	WinNT
#	Creation time:	15. 06. 2019 18:35

#	Modifying user name:	WinNT
#	Modification time:	15. 06. 2019 18:35

#	Program:	/corina/corina34_cracker 3.40 0067  02.08.2006

@<TRIPOS>MOLECULE
ASD00431064
  42   44    0    0    0
SMALL
NO_CHARGES


@<TRIPOS>ATOM
   1 C1            -0.0184     1.5028     0.0103 C.3     
   2 C2             0.0021    -0.0041     0.0020 C.2     
   3 C3             1.1293    -0.7394    -0.0122 C.2     
   4 C4             0.6849    -2.1886    -0.0154 C.3     
   5 C5            -0.8279    -2.0942    -0.0008 C.2     
   6 N6            -1.1188    -0.7796     0.0140 N.am    
   7 O7            -1.6160    -3.0156     0.0019 O.2     
   8 C8             1.1684    -2.8977    -1.2820 C.3     
   9 C9             0.8200    -4.3617    -1.2022 C.2     
  10 O10            0.2441    -4.7936    -0.2318 O.2     
  11 C11           -2.4825    -0.2445     0.0312 C.3     
  12 C12           -2.9374    -0.0747     1.4579 C.ar    
  13 C13           -2.7080     1.1182     2.1176 C.ar    
  14 C14           -3.1257     1.2767     3.4290 C.ar    
  15 C15           -3.7768     0.2316     4.0797 C.ar    
  16 C16           -4.0030    -0.9613     3.4124 C.ar    
  17 C17           -3.5884    -1.1104     2.1021 C.ar    
  18 O18           -3.0247     2.3312     4.2899 O.3     
  19 C19           -3.9797     2.0673     5.3347 C.3     
  20 O20           -4.0836     0.6313     5.3484 O.3     
  21 O21            1.1494    -5.1858    -2.2091 O.3     
  22 C22            2.4598    -0.2573    -0.0226 C.2     
  23 O23            2.6728     0.9406    -0.0185 O.2     
  24 O24            3.4921    -1.1261    -0.0371 O.3     
  25 C25            4.8083    -0.5697    -0.0469 C.3     
  26 H26            1.0042     1.8801     0.0026 H       
  27 H27           -0.5455     1.8639    -0.8728 H       
  28 H28           -0.5286     1.8543     0.9071 H       
  29 H29            1.0461    -2.7028     0.8753 H       
  30 H30            0.6842    -2.4559    -2.1530 H       
  31 H31            2.2489    -2.7856    -1.3712 H       
  32 H32           -2.5002     0.7216    -0.4732 H       
  33 H33           -3.1504    -0.9354    -0.4833 H       
  34 H34           -2.2026     1.9268     1.6106 H       
  35 H35           -4.5077    -1.7734     3.9146 H       
  36 H36           -3.7659    -2.0408     1.5834 H       
  37 H37           -3.6104     2.4337     6.2926 H       
  38 H38           -4.9427     2.5188     5.0963 H       
  39 H39            0.9051    -6.1165    -2.1126 H       
  40 H40            4.9343     0.0497    -0.9350 H       
  41 H41            4.9515     0.0405     0.8449 H       
  42 H42            5.5431    -1.3747    -0.0582 H       
@<TRIPOS>BOND
   1    1    2 1
   2    1   26 1
   3    1   27 1
   4    1   28 1
   5    2    3 2
   6    2    6 1
   7    3    4 1
   8    3   22 1
   9    4    5 1
  10    4    8 1
  11    4   29 1
  12    5    6 am
  13    5    7 2
  14    6   11 1
  15    8    9 1
  16    8   30 1
  17    8   31 1
  18    9   10 2
  19    9   21 1
  20   11   12 1
  21   11   32 1
  22   11   33 1
  23   12   13 ar
  24   12   17 ar
  25   13   14 ar
  26   13   34 1
  27   14   15 ar
  28   14   18 1
  29   15   16 ar
  30   15   20 1
  31   16   17 ar
  32   16   35 1
  33   17   36 1
  34   18   19 1
  35   19   20 1
  36   19   37 1
  37   19   38 1
  38   21   39 1
  39   22   23 2
  40   22   24 1
  41   24   25 1
  42   25   40 1
  43   25   41 1
  44   25   42 1

#	End of record

