#	Name: ASD04570024
#	Creating user name:	WinNT
#	Creation time:	15. 06. 2019 20:49

#	Modifying user name:	WinNT
#	Modification time:	15. 06. 2019 20:49

#	Program:	/corina/corina34_cracker 3.40 0067  02.08.2006

@<TRIPOS>MOLECULE
ASD04570024
 344  344    0    0    0
SMALL
NO_CHARGES


@<TRIPOS>ATOM
   1 C1            -0.0187     1.5258     0.0104 C.3     
   2 C2             0.0021    -0.0041     0.0020 C.3     
   3 C3             0.7182    -0.4975    -1.2568 C.3     
   4 C4             0.7390    -2.0273    -1.2652 C.3     
   5 C5             1.4551    -2.5207    -2.5240 C.3     
   6 C6             1.4758    -4.0506    -2.5324 C.3     
   7 C7             2.1920    -4.5440    -3.7912 C.3     
   8 C8             2.2127    -6.0738    -3.7996 C.3     
   9 C9             2.9289    -6.5673    -5.0584 C.3     
  10 C10            2.9496    -8.0971    -5.0668 C.3     
  11 C11            3.6658    -8.5905    -6.3257 C.3     
  12 C12            3.6865   -10.1203    -6.3341 C.3     
  13 C13            4.4026   -10.6138    -7.5929 C.3     
  14 C14            4.4234   -12.1436    -7.6013 C.3     
  15 C15            5.1395   -12.6370    -8.8601 C.3     
  16 C16            5.1600   -14.1439    -8.8684 C.2     
  17 N17            5.7430   -14.8043    -9.8884 N.am    
  18 O18            4.6518   -14.7622    -7.9572 O.2     
  19 C19            5.7628   -16.2691    -9.8964 C.3     
  20 H20            6.1494   -14.3097   -10.6171 H       
  21 C21            5.8800   -16.7621   -11.3157 C.2     
  22 C22            6.9591   -16.7674    -9.0831 C.3     
  23 C23            6.7781   -16.3732    -7.6159 C.3     
  24 S24            8.1964   -16.9640    -6.6516 S.3     
  25 C25            7.8051   -16.4102    -4.9691 C.3     
  26 N26            5.9170   -18.0854   -11.5685 N.am    
  27 O27            5.9408   -15.9681   -12.2304 O.2     
  28 C28            6.0309   -18.5647   -12.9482 C.3     
  29 C29            6.0513   -20.0715   -12.9565 C.2     
  30 N30            6.1511   -20.7377   -14.1238 N.am    
  31 O31            5.9780   -20.6847   -11.9127 O.2     
  32 C32            6.1709   -22.2026   -14.1319 C.3     
  33 C33            5.6791   -22.7043   -15.4651 C.2     
  34 O34            5.3449   -21.9159   -16.3240 O.2     
  35 N35            5.6107   -24.0291   -15.7030 N.am    
  36 C36            7.6006   -22.6945   -13.8977 C.3     
  37 C37            8.0483   -22.2973   -12.5146 C.ar    
  38 C38            7.8271   -23.1475   -11.4469 C.ar    
  39 C39            8.2365   -22.7857   -10.1781 C.ar    
  40 C40            8.8701   -21.5682    -9.9757 C.ar    
  41 C41            9.0909   -20.7170   -11.0487 C.ar    
  42 C42            8.6846   -21.0859   -12.3165 C.ar    
  43 O43            9.2734   -21.2098    -8.7284 O.3     
  44 C44            5.1326   -24.5169   -16.9991 C.3     
  45 C45            6.2953   -24.5471   -17.9931 C.3     
  46 C46            4.5735   -25.9070   -16.8375 C.2     
  47 O47            4.5744   -26.4380   -15.7471 O.2     
  48 N48            4.0726   -26.5601   -17.9047 N.am    
  49 C49            6.7820   -23.1199   -18.2522 C.3     
  50 C50            7.9272   -23.1497   -19.2313 C.2     
  51 O51            8.3159   -24.2082   -19.6778 O.2     
  52 N52            8.5195   -22.0000   -19.6106 N.am    
  53 C53            3.5291   -27.9115   -17.7477 C.3     
  54 C54            2.0687   -27.8250   -17.2997 C.3     
  55 C55            3.6084   -28.6409   -19.0640 C.2     
  56 C56            1.9990   -27.1962   -15.9066 C.3     
  57 C57            0.5386   -27.1097   -15.4586 C.3     
  58 C58            0.4689   -26.4810   -14.0655 C.3     
  59 N59           -0.9332   -26.3980   -13.6353 N.3     
  60 O60            4.0731   -28.0865   -20.0375 O.2     
  61 N61            3.1629   -29.9093   -19.1594 N.am    
  62 C62            3.2399   -30.6184   -20.4391 C.3     
  63 C63            3.2826   -32.1265   -20.1847 C.3     
  64 C64            2.0299   -30.2836   -21.2726 C.2     
  65 O65            1.0693   -29.7612   -20.7600 O.2     
  66 C66            2.0185   -30.6007   -22.7458 C.3     
  67 C67            4.5742   -32.4828   -19.4461 C.3     
  68 C68            4.6169   -33.9909   -19.1917 C.3     
  69 C69            5.9086   -34.3472   -18.4531 C.3     
  70 N70            5.9495   -35.7952   -18.2088 N.3     
  71 H71            1.0039     1.9031     0.0027 H       
  72 H72           -0.5459     1.8868    -0.8726 H       
  73 H73           -0.5289     1.8773     0.9072 H       
  74 H74            0.5293    -0.3651     0.8851 H       
  75 H75           -1.0205    -0.3814     0.0098 H       
  76 H76            0.1910    -0.1364    -2.1398 H       
  77 H77            1.7408    -0.1202    -1.2645 H       
  78 H78            1.2661    -2.3884    -0.3821 H       
  79 H79           -0.2836    -2.4046    -1.2575 H       
  80 H80            0.9279    -2.1597    -3.4071 H       
  81 H81            2.4777    -2.1435    -2.5317 H       
  82 H82            2.0030    -4.4117    -1.6494 H       
  83 H83            0.4533    -4.4279    -2.5247 H       
  84 H84            1.6648    -4.1829    -4.6743 H       
  85 H85            3.2146    -4.1667    -3.7990 H       
  86 H86            2.7399    -6.4349    -2.9166 H       
  87 H87            1.1901    -6.4511    -3.7919 H       
  88 H88            2.4017    -6.2062    -5.9415 H       
  89 H89            3.9515    -6.1900    -5.0662 H       
  90 H90            3.4768    -8.4582    -4.1838 H       
  91 H91            1.9270    -8.4744    -5.0591 H       
  92 H92            3.1386    -8.2294    -7.2087 H       
  93 H93            4.6884    -8.2132    -6.3334 H       
  94 H94            4.2137   -10.4814    -5.4510 H       
  95 H95            2.6639   -10.4976    -6.3263 H       
  96 H96            3.8755   -10.2527    -8.4759 H       
  97 H97            5.4252   -10.2365    -7.6006 H       
  98 H98            4.9506   -12.5047    -6.7182 H       
  99 H99            3.4008   -12.5209    -7.5935 H       
 100 H100           4.6123   -12.2759    -9.7431 H       
 101 H101           6.1621   -12.2597    -8.8678 H       
 102 H102           4.8407   -16.6474    -9.4553 H       
 103 H103           7.0256   -17.8525    -9.1622 H       
 104 H104           7.8739   -16.3182    -9.4698 H       
 105 H105           6.7116   -15.2881    -7.5368 H       
 106 H106           5.8634   -16.8224    -7.2292 H       
 107 H107           7.7129   -15.3242    -4.9562 H       
 108 H108           6.8646   -16.8585    -4.6486 H       
 109 H109           8.6025   -16.7152    -4.2915 H       
 110 H110           5.8684   -18.7205   -10.8369 H       
 111 H111           5.1786   -18.2097   -13.5276 H       
 112 H112           6.9531   -18.1864   -13.3893 H       
 113 H113           6.2097   -20.2473   -14.9587 H       
 114 H114           5.5229   -22.5791   -13.3405 H       
 115 H115           5.8780   -24.6597   -15.0161 H       
 116 H116           7.6314   -23.7800   -13.9918 H       
 117 H117           8.2647   -22.2468   -14.6371 H       
 118 H118           7.3334   -24.0950   -11.6049 H       
 119 H119           8.0631   -23.4499    -9.3443 H       
 120 H120           9.5840   -19.7687   -10.8937 H       
 121 H121           8.8566   -20.4238   -13.1522 H       
 122 H122          10.1729   -21.4898    -8.5103 H       
 123 H123           4.3529   -23.8528   -17.3720 H       
 124 H124           7.1113   -25.1399   -17.5798 H       
 125 H125           5.9608   -24.9926   -18.9300 H       
 126 H126           4.0719   -26.1354   -18.7768 H       
 127 H127           5.9659   -22.5272   -18.6655 H       
 128 H128           7.1164   -22.6744   -17.3153 H       
 129 H129           8.2087   -21.1534   -19.2535 H       
 130 H130           9.2567   -22.0192   -20.2408 H       
 131 H131           4.1078   -28.4509   -16.9979 H       
 132 H132           1.5084   -27.2103   -18.0042 H       
 133 H133           1.6384   -28.8259   -17.2685 H       
 134 H134           2.5594   -27.8109   -15.2021 H       
 135 H135           2.4294   -26.1953   -15.9377 H       
 136 H136          -0.0217   -26.4951   -16.1631 H       
 137 H137           0.1083   -28.1107   -15.4274 H       
 138 H138           1.0293   -27.0957   -13.3610 H       
 139 H139           0.8993   -25.4801   -14.0966 H       
 140 H140          -1.0060   -25.9858   -12.7172 H       
 141 H141          -1.4876   -25.8871   -14.3060 H       
 142 H142           2.7912   -30.3527   -18.3809 H       
 143 H143           4.1421   -30.3138   -20.9695 H       
 144 H144           2.4250   -32.4170   -19.5778 H       
 145 H145           3.2503   -32.6566   -21.1366 H       
 146 H146           2.9641   -31.0656   -23.0247 H       
 147 H147           1.1988   -31.2853   -22.9638 H       
 148 H148           1.8844   -29.6805   -23.3145 H       
 149 H149           5.4318   -32.1923   -20.0530 H       
 150 H150           4.6065   -31.9527   -18.4942 H       
 151 H151           3.7593   -34.2814   -18.5848 H       
 152 H152           4.5846   -34.5210   -20.1435 H       
 153 H153           6.7661   -34.0567   -19.0600 H       
 154 H154           5.9408   -33.8171   -17.5012 H       
 155 H155           6.7938   -36.0560   -17.7217 H       
 156 H156           5.1314   -36.0998   -17.7029 H       
 157 C157          40.6055    16.3310     8.4703 C.3     
 158 N158          41.2988    17.0281     9.5618 N.3     
 159 C159          41.1314    16.3125    10.8337 C.3     
 160 C160          39.8633    16.7723    11.5058 C.2     
 161 N161          39.2227    15.9564    12.3663 N.am    
 162 C162          37.9900    16.4034    13.0196 C.3     
 163 C163          37.8083    15.6553    14.3151 C.2     
 164 N164          36.7351    15.9034    15.0918 N.am    
 165 C165          36.5585    15.1762    16.3512 C.3     
 166 C166          35.0955    15.1431    16.7113 C.2     
 167 N167          34.6927    14.5228    17.8380 N.am    
 168 O168          34.2806    15.6746    15.9872 O.2     
 169 C169          33.2705    14.4906    18.1880 C.3     
 170 C170          33.1237    14.3247    19.6787 C.2     
 171 C171          32.5964    13.3165    17.4754 C.3     
 172 C172          32.6359    13.5469    15.9634 C.3     
 173 S173          31.8366    12.1549    15.1184 S.3     
 174 C174          31.9806    12.6036    13.3667 C.3     
 175 N175          31.8964    14.2688    20.2329 N.am    
 176 O176          34.1100    14.2416    20.3796 O.2     
 177 C177          31.7537    14.1075    21.6819 C.3     
 178 C178          30.4203    13.4756    21.9882 C.2     
 179 N179          30.1836    12.9605    23.2109 N.am    
 180 O180          29.5602    13.4305    21.1343 O.2     
 181 C181          28.8599    12.4236    23.5358 C.3     
 182 C182          28.3986    12.9883    24.8547 C.2     
 183 O183          29.1059    13.7630    25.4633 O.2     
 184 N184          27.2000    12.6324    25.3579 N.am    
 185 C185          26.7516    13.1814    26.6400 C.3     
 186 C186          26.0868    14.5398    26.4085 C.3     
 187 C187          25.7603    12.2380    27.2712 C.2     
 188 O188          25.4581    11.2085    26.7058 O.2     
 189 N189          25.2095    12.5384    28.4640 N.am    
 190 C190          24.2458    11.6214    29.0777 C.3     
 191 C191          24.9962    10.5423    29.8610 C.3     
 192 C192          23.3479    12.3887    30.0136 C.2     
 193 O193          23.4982    13.5839    30.1543 O.2     
 194 N194          22.3780    11.7467    30.6944 N.am    
 195 C195          21.5051    12.4927    31.6043 C.3     
 196 C196          20.3448    13.1008    30.8138 C.3     
 197 C197          20.9621    11.5604    32.6565 C.2     
 198 O198          21.2735    10.3883    32.6472 O.2     
 199 N199          20.1303    12.0292    33.6077 N.am    
 200 C200          20.8869    14.1398    29.8303 C.3     
 201 C201          19.7266    14.7479    29.0398 C.3     
 202 N202          20.2457    15.7429    28.0981 N.pl3   
 203 C203          19.3824    16.4258    27.2743 C.2     
 204 C204          31.8361    15.4775    22.3581 C.3     
 205 C205          31.8468    15.2966    23.8773 C.3     
 206 O206          33.0347    16.1394    21.9488 O.3     
 207 C207          28.9380    10.8987    23.6333 C.3     
 208 C208          29.2750    10.3254    22.2810 C.2     
 209 O209          29.3624     8.9959    22.1185 O.3     
 210 O210          29.4665    11.0626    21.3430 O.2     
 211 C211          27.1255    15.5332    25.8839 C.3     
 212 C212          26.4607    16.8916    25.6525 C.3     
 213 C213          27.4994    17.8850    25.1279 C.3     
 214 N214          26.8611    19.1893    24.9057 N.3     
 215 C215          25.7998     9.6965    28.9071 C.ar    
 216 C216          27.1003    10.0505    28.5985 C.ar    
 217 C217          25.2374     8.5646    28.3466 C.ar    
 218 C218          25.9721     7.7873    27.4723 C.ar    
 219 C219          27.2754     8.1433    27.1569 C.ar    
 220 C220          27.8390     9.2768    27.7244 C.ar    
 221 O221          28.0004     7.3800    26.2974 O.3     
 222 N222          18.0320    16.1750    27.3344 N.pl3   
 223 N223          19.8442    17.3110    26.4365 N.2     
 224 C224          37.3411    15.8808    17.4611 C.3     
 225 O225          36.7813    17.1755    17.6904 O.3     
 226 O226          38.6279    14.8301    14.6589 O.2     
 227 C227          36.7976    16.1293    12.1009 C.3     
 228 C228          36.9195    16.9846    10.8381 C.3     
 229 C229          35.7271    16.7105     9.9194 C.3     
 230 N230          35.8439    17.5295     8.7103 N.pl3   
 231 C231          34.8809    17.4522     7.7321 C.2     
 232 N232          34.9905    18.2207     6.5974 N.pl3   
 233 N233          33.8641    16.6503     7.8804 N.2     
 234 O234          39.4193    17.8765    11.2723 O.2     
 235 C235          42.3259    16.6044    11.7442 C.3     
 236 C236          43.5970    16.0265    11.1188 C.3     
 237 C237          44.8081    16.4250    11.9646 C.3     
 238 C238          43.4915    14.5010    11.0662 C.3     
 239 C239          19.6024    11.1229    34.6306 C.3     
 240 C240          20.5944    11.0067    35.7591 C.2     
 241 C241          18.2807    11.6751    35.1682 C.3     
 242 C242          17.2334    11.6672    34.0529 C.3     
 243 N243          20.3203    10.2207    36.8191 N.am    
 244 O244          21.6395    11.6205    35.7135 O.2     
 245 C245          16.9420    10.2239    33.6371 C.3     
 246 C246          15.9461    12.3224    34.5574 C.3     
 247 H247          39.5581    16.1896     8.7369 H       
 248 H248          40.6714    16.9260     7.5595 H       
 249 H249          41.0725    15.3602     8.3048 H       
 250 H250          42.2758    17.1573     9.3455 H       
 251 H251          41.0734    15.2409    10.6428 H       
 252 H252          39.5778    15.0733    12.5530 H       
 253 H253          38.0536    17.4724    13.2231 H       
 254 H254          36.0796    16.5635    14.8169 H       
 255 H255          36.9278    14.1570    16.2371 H       
 256 H256          35.3445    14.0976    18.4171 H       
 257 H257          32.7989    15.4231    17.8780 H       
 258 H258          33.1242    12.3937    17.7162 H       
 259 H259          31.5600    13.2386    17.8041 H       
 260 H260          32.1081    14.4697    15.7225 H       
 261 H261          33.6723    13.6248    15.6347 H       
 262 H262          31.4692    13.5500    13.1909 H       
 263 H263          33.0334    12.7051    13.1030 H       
 264 H264          31.5259    11.8255    12.7537 H       
 265 H265          31.1077    14.3353    19.6722 H       
 266 H266          32.5533    13.4686    22.0569 H       
 267 H267          30.8897    12.9454    23.8758 H       
 268 H268          28.1530    12.7019    22.7542 H       
 269 H269          26.6343    12.0128    24.8711 H       
 270 H270          27.6085    13.3044    27.3022 H       
 271 H271          25.2853    14.4323    25.6776 H       
 272 H272          25.6746    14.9074    27.3482 H       
 273 H273          25.4512    13.3618    28.9162 H       
 274 H274          23.6437    11.1528    28.2992 H       
 275 H275          25.6654    11.0146    30.5801 H       
 276 H276          24.2802     9.9131    30.3897 H       
 277 H277          22.2578    10.7908    30.5819 H       
 278 H278          22.0750    13.2887    32.0834 H       
 279 H279          19.8284    12.3143    30.2635 H       
 280 H280          19.6483    13.5802    31.5017 H       
 281 H281          19.8812    12.9666    33.6151 H       
 282 H282          21.4033    14.9263    30.3807 H       
 283 H283          21.5834    13.6604    29.1424 H       
 284 H284          19.2103    13.9614    28.4895 H       
 285 H285          19.0302    15.2274    29.7277 H       
 286 H286          21.1985    15.9199    28.0557 H       
 287 H287          30.9731    16.0776    22.0697 H       
 288 H288          32.6916    14.6698    24.1627 H       
 289 H289          31.9380    16.2704    24.3585 H       
 290 H290          30.9183    14.8209    24.1931 H       
 291 H291          33.0961    16.2877    20.9952 H       
 292 H292          29.7110    10.6195    24.3492 H       
 293 H293          27.9767    10.5061    23.9651 H       
 294 H294          29.5811     8.6753    21.2327 H       
 295 H295          27.9269    15.6407    26.6148 H       
 296 H296          27.5376    15.1656    24.9442 H       
 297 H297          25.6592    16.7841    24.9216 H       
 298 H298          26.0485    17.2593    26.5922 H       
 299 H299          28.3008    17.9926    25.8588 H       
 300 H300          27.9115    17.5174    24.1882 H       
 301 H301          27.5270    19.8634    24.5588 H       
 302 H302          26.0734    19.1046    24.2808 H       
 303 H303          27.5387    10.9328    29.0408 H       
 304 H304          24.2229     8.2877    28.5927 H       
 305 H305          25.5325     6.9031    27.0350 H       
 306 H306          28.8534     9.5560    27.4805 H       
 307 H307          27.9143     7.6417    25.3705 H       
 308 H308          17.6883    15.5162    27.9579 H       
 309 H309          17.4229    16.6568    26.7532 H       
 310 H310          19.2351    17.7928    25.8553 H       
 311 H311          37.2827    15.2924    18.3767 H       
 312 H312          38.3840    15.9838    17.1612 H       
 313 H313          37.2289    17.6804    18.3832 H       
 314 H314          36.7858    15.0747    11.8257 H       
 315 H315          35.8730    16.3794    12.6212 H       
 316 H316          36.9313    18.0392    11.1134 H       
 317 H317          37.8441    16.7346    10.3178 H       
 318 H318          35.7154    15.6559     9.6442 H       
 319 H319          34.8026    16.9606    10.4398 H       
 320 H320          36.6006    18.1262     8.5999 H       
 321 H321          35.7472    18.8175     6.4870 H       
 322 H322          34.3111    18.1662     5.9072 H       
 323 H323          33.1847    16.5958     7.1903 H       
 324 H324          42.4371    17.6821    11.8633 H       
 325 H325          42.1600    16.1463    12.7193 H       
 326 H326          43.7150    16.4176    10.1083 H       
 327 H327          44.6902    16.0339    12.9751 H       
 328 H328          45.7137    16.0133    11.5190 H       
 329 H329          44.8833    17.5118    12.0021 H       
 330 H330          43.3735    14.1099    12.0767 H       
 331 H331          42.6287    14.2171    10.4637 H       
 332 H332          44.3971    14.0893    10.6206 H       
 333 H333          19.4338    10.1392    34.1924 H       
 334 H334          17.9363    11.0531    35.9944 H       
 335 H335          18.4296    12.6961    35.5196 H       
 336 H336          17.6119    12.2231    33.1951 H       
 337 H337          19.4845     9.7298    36.8556 H       
 338 H338          20.9588    10.1460    37.5454 H       
 339 H339          16.5635     9.6681    34.4949 H       
 340 H340          16.1959    10.2183    32.8425 H       
 341 H341          17.8591     9.7572    33.2776 H       
 342 H342          16.1339    13.3743    34.7724 H       
 343 H343          15.1729    12.2400    33.7935 H       
 344 H344          15.6144    11.8195    35.4658 H       
@<TRIPOS>BOND
   1    1    2 1
   2    1   71 1
   3    1   72 1
   4    1   73 1
   5    2    3 1
   6    2   74 1
   7    2   75 1
   8    3    4 1
   9    3   76 1
  10    3   77 1
  11    4    5 1
  12    4   78 1
  13    4   79 1
  14    5    6 1
  15    5   80 1
  16    5   81 1
  17    6    7 1
  18    6   82 1
  19    6   83 1
  20    7    8 1
  21    7   84 1
  22    7   85 1
  23    8    9 1
  24    8   86 1
  25    8   87 1
  26    9   10 1
  27    9   88 1
  28    9   89 1
  29   10   11 1
  30   10   90 1
  31   10   91 1
  32   11   12 1
  33   11   92 1
  34   11   93 1
  35   12   13 1
  36   12   94 1
  37   12   95 1
  38   13   14 1
  39   13   96 1
  40   13   97 1
  41   14   15 1
  42   14   98 1
  43   14   99 1
  44   15   16 1
  45   15  100 1
  46   15  101 1
  47   16   17 am
  48   16   18 2
  49   17   19 1
  50   17   20 1
  51   19   21 1
  52   19   22 1
  53   19  102 1
  54   21   26 am
  55   21   27 2
  56   22   23 1
  57   22  103 1
  58   22  104 1
  59   23   24 1
  60   23  105 1
  61   23  106 1
  62   24   25 1
  63   25  107 1
  64   25  108 1
  65   25  109 1
  66   26   28 1
  67   26  110 1
  68   28   29 1
  69   28  111 1
  70   28  112 1
  71   29   30 am
  72   29   31 2
  73   30   32 1
  74   30  113 1
  75   32   33 1
  76   32   36 1
  77   32  114 1
  78   33   34 2
  79   33   35 am
  80   35   44 1
  81   35  115 1
  82   36   37 1
  83   36  116 1
  84   36  117 1
  85   37   38 ar
  86   37   42 ar
  87   38   39 ar
  88   38  118 1
  89   39   40 ar
  90   39  119 1
  91   40   41 ar
  92   40   43 1
  93   41   42 ar
  94   41  120 1
  95   42  121 1
  96   43  122 1
  97   44   45 1
  98   44   46 1
  99   44  123 1
 100   45   49 1
 101   45  124 1
 102   45  125 1
 103   46   47 2
 104   46   48 am
 105   48   53 1
 106   48  126 1
 107   49   50 1
 108   49  127 1
 109   49  128 1
 110   50   51 2
 111   50   52 am
 112   52  129 1
 113   52  130 1
 114   53   54 1
 115   53   55 1
 116   53  131 1
 117   54   56 1
 118   54  132 1
 119   54  133 1
 120   55   60 2
 121   55   61 am
 122   56   57 1
 123   56  134 1
 124   56  135 1
 125   57   58 1
 126   57  136 1
 127   57  137 1
 128   58   59 1
 129   58  138 1
 130   58  139 1
 131   59  140 1
 132   59  141 1
 133   61   62 1
 134   61  142 1
 135   62   63 1
 136   62   64 1
 137   62  143 1
 138   63   67 1
 139   63  144 1
 140   63  145 1
 141   64   65 2
 142   64   66 1
 143   66  146 1
 144   66  147 1
 145   66  148 1
 146   67   68 1
 147   67  149 1
 148   67  150 1
 149   68   69 1
 150   68  151 1
 151   68  152 1
 152   69   70 1
 153   69  153 1
 154   69  154 1
 155   70  155 1
 156   70  156 1
 157  157  158 1
 158  157  247 1
 159  157  248 1
 160  157  249 1
 161  158  159 1
 162  158  250 1
 163  159  160 1
 164  159  235 1
 165  159  251 1
 166  160  161 am
 167  160  234 2
 168  161  162 1
 169  161  252 1
 170  162  163 1
 171  162  227 1
 172  162  253 1
 173  163  164 am
 174  163  226 2
 175  164  165 1
 176  164  254 1
 177  165  166 1
 178  165  224 1
 179  165  255 1
 180  166  167 am
 181  166  168 2
 182  167  169 1
 183  167  256 1
 184  169  170 1
 185  169  171 1
 186  169  257 1
 187  170  175 am
 188  170  176 2
 189  171  172 1
 190  171  258 1
 191  171  259 1
 192  172  173 1
 193  172  260 1
 194  172  261 1
 195  173  174 1
 196  174  262 1
 197  174  263 1
 198  174  264 1
 199  175  177 1
 200  175  265 1
 201  177  178 1
 202  177  204 1
 203  177  266 1
 204  178  179 am
 205  178  180 2
 206  179  181 1
 207  179  267 1
 208  181  182 1
 209  181  207 1
 210  181  268 1
 211  182  183 2
 212  182  184 am
 213  184  185 1
 214  184  269 1
 215  185  186 1
 216  185  187 1
 217  185  270 1
 218  186  211 1
 219  186  271 1
 220  186  272 1
 221  187  188 2
 222  187  189 am
 223  189  190 1
 224  189  273 1
 225  190  191 1
 226  190  192 1
 227  190  274 1
 228  191  215 1
 229  191  275 1
 230  191  276 1
 231  192  193 2
 232  192  194 am
 233  194  195 1
 234  194  277 1
 235  195  196 1
 236  195  197 1
 237  195  278 1
 238  196  200 1
 239  196  279 1
 240  196  280 1
 241  197  198 2
 242  197  199 am
 243  199  239 1
 244  199  281 1
 245  200  201 1
 246  200  282 1
 247  200  283 1
 248  201  202 1
 249  201  284 1
 250  201  285 1
 251  202  203 1
 252  202  286 1
 253  203  222 1
 254  203  223 2
 255  204  205 1
 256  204  206 1
 257  204  287 1
 258  205  288 1
 259  205  289 1
 260  205  290 1
 261  206  291 1
 262  207  208 1
 263  207  292 1
 264  207  293 1
 265  208  209 1
 266  208  210 2
 267  209  294 1
 268  211  212 1
 269  211  295 1
 270  211  296 1
 271  212  213 1
 272  212  297 1
 273  212  298 1
 274  213  214 1
 275  213  299 1
 276  213  300 1
 277  214  301 1
 278  214  302 1
 279  215  216 ar
 280  215  217 ar
 281  216  220 ar
 282  216  303 1
 283  217  218 ar
 284  217  304 1
 285  218  219 ar
 286  218  305 1
 287  219  220 ar
 288  219  221 1
 289  220  306 1
 290  221  307 1
 291  222  308 1
 292  222  309 1
 293  223  310 1
 294  224  225 1
 295  224  311 1
 296  224  312 1
 297  225  313 1
 298  227  228 1
 299  227  314 1
 300  227  315 1
 301  228  229 1
 302  228  316 1
 303  228  317 1
 304  229  230 1
 305  229  318 1
 306  229  319 1
 307  230  231 1
 308  230  320 1
 309  231  232 1
 310  231  233 2
 311  232  321 1
 312  232  322 1
 313  233  323 1
 314  235  236 1
 315  235  324 1
 316  235  325 1
 317  236  237 1
 318  236  238 1
 319  236  326 1
 320  237  327 1
 321  237  328 1
 322  237  329 1
 323  238  330 1
 324  238  331 1
 325  238  332 1
 326  239  240 1
 327  239  241 1
 328  239  333 1
 329  240  243 am
 330  240  244 2
 331  241  242 1
 332  241  334 1
 333  241  335 1
 334  242  245 1
 335  242  246 1
 336  242  336 1
 337  243  337 1
 338  243  338 1
 339  245  339 1
 340  245  340 1
 341  245  341 1
 342  246  342 1
 343  246  343 1
 344  246  344 1

#	End of record

