#	Name: ASD01910816
#	Creating user name:	WinNT
#	Creation time:	15. 06. 2019 19:56

#	Modifying user name:	WinNT
#	Modification time:	15. 06. 2019 19:56

#	Program:	/corina/corina34_cracker 3.40 0067  02.08.2006

@<TRIPOS>MOLECULE
ASD01910816
  49   52    0    0    0
SMALL
NO_CHARGES


@<TRIPOS>ATOM
   1 N1             0.0672     1.6949    -0.3736 N.ar    
   2 C2             0.0125     0.3763    -0.4008 C.ar    
   3 C3             1.1646    -0.3801    -0.3561 C.ar    
   4 C4             2.3978     0.2673    -0.2817 C.ar    
   5 C5             2.4113     1.6618    -0.2557 C.ar    
   6 C6             1.2141     2.3444    -0.3036 C.ar    
   7 N7             3.5839    -0.4592    -0.2343 N.3     
   8 C8             4.7466     0.4354    -0.1591 C.3     
   9 C9             6.0125    -0.3961     0.0734 C.3     
  10 N10            6.0901    -1.4305    -0.9694 N.am    
  11 C11            4.9103    -2.2785    -1.1974 C.3     
  12 C12            3.6877    -1.3729    -1.3799 C.3     
  13 C13            7.2127    -1.5970    -1.6963 C.2     
  14 C14            7.3148    -2.7208    -2.6520 C.ar    
  15 O15            8.1413    -0.8235    -1.5663 O.2     
  16 C16            7.9319    -2.5321    -3.8906 C.ar    
  17 C17            8.0289    -3.5802    -4.7849 C.ar    
  18 C18            7.5175    -4.8209    -4.4623 C.ar    
  19 C19            6.8969    -5.0244    -3.2258 C.ar    
  20 C20            6.8006    -3.9713    -2.3164 C.ar    
  21 C21            6.3662    -6.3119    -2.8922 C.1     
  22 C22            5.9310    -7.3674    -2.6186 C.1     
  23 C23            5.4003    -8.6549    -2.2850 C.ar    
  24 C24            4.7799    -8.8599    -1.0498 C.ar    
  25 C25            4.2707   -10.1026    -0.7356 C.ar    
  26 C26            4.3734   -11.1450    -1.6398 C.ar    
  27 C27            4.9868   -10.9496    -2.8647 C.ar    
  28 C28            5.4952    -9.7108    -3.1953 C.ar    
  29 H29           -0.9468    -0.1164    -0.4585 H       
  30 H30            1.1128    -1.4586    -0.3780 H       
  31 H31            3.3463     2.1993    -0.1981 H       
  32 H32            1.2150     3.4242    -0.2842 H       
  33 H33            4.8411     0.9884    -1.0936 H       
  34 H34            4.6143     1.1351     0.6662 H       
  35 H35            6.8897     0.2484     0.0158 H       
  36 H36            5.9654    -0.8683     1.0547 H       
  37 H37            5.0587    -2.8786    -2.0952 H       
  38 H38            4.7572    -2.9316    -0.3383 H       
  39 H39            2.7876    -1.9846    -1.4400 H       
  40 H40            3.7970    -0.7948    -2.2974 H       
  41 H41            8.3341    -1.5639    -4.1500 H       
  42 H42            8.5070    -3.4281    -5.7413 H       
  43 H43            7.5964    -5.6360    -5.1664 H       
  44 H44            6.3224    -4.1224    -1.3599 H       
  45 H45            4.6997    -8.0475    -0.3428 H       
  46 H46            3.7909   -10.2625     0.2187 H       
  47 H47            3.9731   -12.1160    -1.3882 H       
  48 H48            5.0640   -11.7680    -3.5652 H       
  49 H49            5.9738    -9.5597    -4.1516 H       
@<TRIPOS>BOND
   1    1    2 ar
   2    1    6 ar
   3    2    3 ar
   4    2   29 1
   5    3    4 ar
   6    3   30 1
   7    4    5 ar
   8    4    7 1
   9    5    6 ar
  10    5   31 1
  11    6   32 1
  12    7    8 1
  13    7   12 1
  14    8    9 1
  15    8   33 1
  16    8   34 1
  17    9   10 1
  18    9   35 1
  19    9   36 1
  20   10   11 1
  21   10   13 am
  22   11   12 1
  23   11   37 1
  24   11   38 1
  25   12   39 1
  26   12   40 1
  27   13   14 1
  28   13   15 2
  29   14   16 ar
  30   14   20 ar
  31   16   17 ar
  32   16   41 1
  33   17   18 ar
  34   17   42 1
  35   18   19 ar
  36   18   43 1
  37   19   20 ar
  38   19   21 1
  39   20   44 1
  40   21   22 3
  41   22   23 1
  42   23   24 ar
  43   23   28 ar
  44   24   25 ar
  45   24   45 1
  46   25   26 ar
  47   25   46 1
  48   26   27 ar
  49   26   47 1
  50   27   28 ar
  51   27   48 1
  52   28   49 1

#	End of record

