#	Name: ASD01028354
#	Creating user name:	WinNT
#	Creation time:	15. 06. 2019 18:57

#	Modifying user name:	WinNT
#	Modification time:	15. 06. 2019 18:57

#	Program:	/corina/corina34_cracker 3.40 0067  02.08.2006

@<TRIPOS>MOLECULE
ASD01028354
  52   56    0    0    0
SMALL
NO_CHARGES


@<TRIPOS>ATOM
   1 C1            -0.0780     1.4821     0.3650 C.ar    
   2 C2            -0.1049     0.1059     0.6971 C.ar    
   3 C3             1.1665     2.1501     0.3218 C.ar    
   4 C4             2.3056     1.4191     0.6087 C.ar    
   5 C5             2.1975     0.0711     0.9261 C.ar    
   6 N6             1.0365    -0.5397     0.9638 N.ar    
   7 O7             1.2420     3.4670     0.0084 O.3     
   8 C8             2.5261     4.0856     0.1105 C.3     
   9 C9             2.3748     5.4620     0.7052 C.2     
  10 N10            3.1436     5.9994     1.6775 N.pl3   
  11 C11            2.6456     7.2612     1.9008 C.2     
  12 N12            1.6257     7.4221     1.0736 N.2     
  13 N13            1.4779     6.3552     0.3685 N.2     
  14 N14            4.2376     5.5383     2.4124 N.2     
  15 C15            4.8002     6.3035     3.3216 C.2     
  16 C16            4.3120     7.6030     3.5742 C.2     
  17 C17            3.2490     8.0799     2.8742 C.2     
  18 C18            5.9617     5.7943     4.0914 C.ar    
  19 C19           -1.3392    -0.5627     0.7414 C.ar    
  20 C20            6.4523     4.5123     3.8510 C.ar    
  21 C21            7.5335     4.0439     4.5697 C.ar    
  22 C22            8.1299     4.8445     5.5273 C.ar    
  23 C23            7.6470     6.1178     5.7701 C.ar    
  24 C24            6.5698     6.5983     5.0535 C.ar    
  25 C25           -2.4968     0.1273     0.4628 C.ar    
  26 C26           -2.4585     1.4862     0.1355 C.ar    
  27 C27           -1.2765     2.1584     0.0916 C.ar    
  28 O28           -3.6905    -0.5194     0.5057 O.3     
  29 C29           -4.8566     0.2505     0.2068 C.3     
  30 C30            3.1505     4.1974    -1.2818 C.3     
  31 C31            3.4190     2.7962    -1.8344 C.3     
  32 H32            3.2751     1.8946     0.5857 H       
  33 H33            3.0934    -0.4896     1.1483 H       
  34 H34            3.1703     3.4823     0.7502 H       
  35 H35            4.7839     8.2199     4.3246 H       
  36 H36            2.8711     9.0738     3.0634 H       
  37 H37           -1.3796    -1.6123     0.9925 H       
  38 H38            5.9872     3.8863     3.1039 H       
  39 H39            7.9143     3.0504     4.3845 H       
  40 H40            8.9754     4.4738     6.0876 H       
  41 H41            8.1163     6.7384     6.5191 H       
  42 H42            6.1937     7.5927     5.2439 H       
  43 H43           -3.3783     2.0093    -0.0806 H       
  44 H44           -1.2598     3.2080    -0.1625 H       
  45 H45           -5.7394    -0.3849     0.2768 H       
  46 H46           -4.9424     1.0714     0.9188 H       
  47 H47           -4.7775     0.6525    -0.8033 H       
  48 H48            2.4656     4.7247    -1.9459 H       
  49 H49            4.0889     4.7480    -1.2161 H       
  50 H50            4.1039     2.2688    -1.1703 H       
  51 H51            2.4806     2.2456    -1.9001 H       
  52 H52            3.8638     2.8758    -2.8263 H       
@<TRIPOS>BOND
   1    1    2 ar
   2    1    3 ar
   3    1   27 ar
   4    2   19 ar
   5    2    6 ar
   6    3    4 ar
   7    3    7 1
   8    4    5 ar
   9    4   32 1
  10    5    6 ar
  11    5   33 1
  12    7    8 1
  13    8    9 1
  14    8   30 1
  15    8   34 1
  16    9   10 1
  17    9   13 2
  18   10   11 1
  19   10   14 1
  20   11   12 2
  21   11   17 1
  22   12   13 1
  23   14   15 2
  24   15   16 1
  25   15   18 1
  26   16   17 2
  27   16   35 1
  28   17   36 1
  29   18   20 ar
  30   18   24 ar
  31   19   25 ar
  32   19   37 1
  33   20   21 ar
  34   20   38 1
  35   21   22 ar
  36   21   39 1
  37   22   23 ar
  38   22   40 1
  39   23   24 ar
  40   23   41 1
  41   24   42 1
  42   25   26 ar
  43   25   28 1
  44   26   27 ar
  45   26   43 1
  46   27   44 1
  47   28   29 1
  48   29   45 1
  49   29   46 1
  50   29   47 1
  51   30   31 1
  52   30   48 1
  53   30   49 1
  54   31   50 1
  55   31   51 1
  56   31   52 1

#	End of record

