#	Name: ASD03091989
#	Creating user name:	WinNT
#	Creation time:	15. 06. 2019 20:31

#	Modifying user name:	WinNT
#	Modification time:	15. 06. 2019 20:31

#	Program:	/corina/corina34_cracker 3.40 0067  02.08.2006

@<TRIPOS>MOLECULE
ASD03091989
  44   47    0    0    0
SMALL
NO_CHARGES


@<TRIPOS>ATOM
   1 C1            -0.0150     1.4036     0.0122 C.ar    
   2 C2            -1.2271     2.0732     0.0343 C.ar    
   3 C3            -2.4099     1.3526     0.0344 C.ar    
   4 C4            -2.3910    -0.0341     0.0125 C.ar    
   5 C5            -1.1912    -0.7146    -0.0096 C.ar    
   6 C6             0.0034     0.0002    -0.0097 C.ar    
   7 O7             1.1658     2.0702     0.0167 O.3     
   8 C8             2.2613     1.4541     0.6938 C.3     
   9 N9             2.4079     0.0564     0.2862 N.am    
  10 C10            1.3151    -0.6782    -0.0267 C.2     
  11 C11           -3.6879    -0.8014     0.0132 C.3     
  12 C12           -4.2321    -0.8669     1.4170 C.ar    
  13 O13            1.4100    -1.8562    -0.3125 O.2     
  14 C14            3.7402    -0.5488     0.2162 C.3     
  15 C15            4.5944     0.1751    -0.8450 C.3     
  16 C16            4.4692    -0.3755     1.5602 C.3     
  17 C17            5.7409     0.4477     1.2689 C.3     
  18 C18            5.4061     1.2156    -0.0340 C.3     
  19 O19            4.8244    -1.6531     2.0927 O.3     
  20 Cl20          -3.9291     2.1922     0.0629 Cl      
  21 F21           -1.2556     3.4237     0.0561 F       
  22 C22           -3.8793    -1.9111     2.2585 C.ar    
  23 C23           -4.4036    -1.9309     3.5414 C.ar    
  24 C24           -5.2556    -0.9152     3.9370 C.ar    
  25 N25           -5.5696     0.0628     3.1084 N.ar    
  26 C26           -5.0842     0.1160     1.8833 C.ar    
  27 Cl27          -5.9195    -0.9277     5.5410 Cl      
  28 H28           -1.1788    -1.7944    -0.0264 H       
  29 H29            3.1781     1.9943     0.4575 H       
  30 H30            2.0880     1.4974     1.7691 H       
  31 H31           -4.4080    -0.2987    -0.6325 H       
  32 H32           -3.5125    -1.8119    -0.3559 H       
  33 H33            3.6566    -1.6075    -0.0294 H       
  34 H34            5.2634    -0.5282    -1.3408 H       
  35 H35            3.9554     0.6738    -1.5737 H       
  36 H36            3.8317     0.1590     2.2645 H       
  37 H37            5.9385     1.1453     2.0827 H       
  38 H38            6.5950    -0.2116     1.1143 H       
  39 H39            6.3174     1.4928    -0.5640 H       
  40 H40            4.8002     2.0957     0.1812 H       
  41 H41            5.2875    -1.6108     2.9406 H       
  42 H42           -3.2120    -2.6908     1.9220 H       
  43 H43           -4.1506    -2.7293     4.2234 H       
  44 H44           -5.3599     0.9347     1.2352 H       
@<TRIPOS>BOND
   1    1    6 ar
   2    1    7 1
   3    1    2 ar
   4    2    3 ar
   5    2   21 1
   6    3    4 ar
   7    3   20 1
   8    4    5 ar
   9    4   11 1
  10    5    6 ar
  11    5   28 1
  12    6   10 1
  13    7    8 1
  14    8    9 1
  15    8   29 1
  16    8   30 1
  17    9   10 am
  18    9   14 1
  19   10   13 2
  20   11   12 1
  21   11   31 1
  22   11   32 1
  23   12   26 ar
  24   12   22 ar
  25   14   16 1
  26   14   15 1
  27   14   33 1
  28   15   18 1
  29   15   34 1
  30   15   35 1
  31   16   17 1
  32   16   19 1
  33   16   36 1
  34   17   18 1
  35   17   37 1
  36   17   38 1
  37   18   39 1
  38   18   40 1
  39   19   41 1
  40   22   23 ar
  41   22   42 1
  42   23   24 ar
  43   23   43 1
  44   24   25 ar
  45   24   27 1
  46   25   26 ar
  47   26   44 1

#	End of record

