#	Name: ASD01320124
#	Creating user name:	WinNT
#	Creation time:	15. 06. 2019 19:16

#	Modifying user name:	WinNT
#	Modification time:	15. 06. 2019 19:16

#	Program:	/corina/corina34_cracker 3.40 0067  02.08.2006

@<TRIPOS>MOLECULE
ASD01320124
  22   21    0    0    0
SMALL
NO_CHARGES


@<TRIPOS>ATOM
   1 C1             0.5985    -0.7635     1.2163 C.3     
   2 C2            -1.4513    -0.7627    -0.2123 C.3     
   3 C3            -0.0692    -0.1383    -0.0102 C.3     
   4 O4            -0.2071     1.2700     0.1886 O.3     
   5 C5             0.7930    -0.3967    -1.2475 C.3     
   6 C6             0.0605     0.1053    -2.4934 C.3     
   7 O7            -0.0606     1.5280    -2.4338 O.3     
   8 C8             0.8514    -0.2873    -3.7429 C.3     
   9 H9             0.6755    -1.8420     1.0779 H       
  10 H10            1.5955    -0.3413     1.3421 H       
  11 H11            0.0002    -0.5528     2.1027 H       
  12 H12           -2.0655    -0.5786     0.6692 H       
  13 H13           -1.9270    -0.3173    -1.0860 H       
  14 H14           -1.3461    -1.8369    -0.3639 H       
  15 H15           -0.6238     1.7327    -0.5512 H       
  16 H16            1.7413     0.1311    -1.1461 H       
  17 H17            0.9807    -1.4662    -1.3426 H       
  18 H18           -0.9324    -0.3424    -2.5363 H       
  19 H19            0.7860     1.9935    -2.3936 H       
  20 H20            0.9439    -1.3724    -3.7883 H       
  21 H21            0.3296     0.0704    -4.6305 H       
  22 H22            1.8443     0.1604    -3.7000 H       
@<TRIPOS>BOND
   1    1    3 1
   2    1    9 1
   3    1   10 1
   4    1   11 1
   5    2    3 1
   6    2   12 1
   7    2   13 1
   8    2   14 1
   9    3    4 1
  10    3    5 1
  11    4   15 1
  12    5    6 1
  13    5   16 1
  14    5   17 1
  15    6    7 1
  16    6    8 1
  17    6   18 1
  18    7   19 1
  19    8   20 1
  20    8   21 1
  21    8   22 1

#	End of record

