#	Name: ASD03092401
#	Creating user name:	WinNT
#	Creation time:	15. 06. 2019 20:32

#	Modifying user name:	WinNT
#	Modification time:	15. 06. 2019 20:32

#	Program:	/corina/corina34_cracker 3.40 0067  02.08.2006

@<TRIPOS>MOLECULE
ASD03092401
  66   70    0    0    0
SMALL
NO_CHARGES


@<TRIPOS>ATOM
   1 C1            -0.1268     1.4451     0.0218 C.2     
   2 C2            -0.1636    -0.0317     0.0284 C.ar    
   3 C3             1.0114    -0.7629    -0.1603 C.ar    
   4 C4             0.9714    -2.1404    -0.1527 C.ar    
   5 C5            -0.2326    -2.8007     0.0414 C.ar    
   6 C6            -1.4017    -2.0798     0.2292 C.ar    
   7 C7            -1.3722    -0.7015     0.2292 C.ar    
   8 O8             0.9388     2.0262    -0.0459 O.2     
   9 N9            -1.2749     2.1481     0.0852 N.am    
  10 C10            2.3203    -0.0468    -0.3723 C.3     
  11 F11           -0.2663    -4.1512     0.0471 F       
  12 C12           -1.2384     3.6126     0.0786 C.3     
  13 S13           -4.9301     5.0778    -0.3940 S.3     
  14 C14           -4.4916     4.7856     1.2322 C.2     
  15 N15           -3.2832     4.3126     1.2952 N.2     
  16 C16           -2.6440     4.1505     0.1571 C.2     
  17 C17           -3.3531     4.5073    -0.9342 C.2     
  18 N18           -5.3066     5.0196     2.3248 N.3     
  19 C19           -6.6094     5.5559     1.9050 C.3     
  20 C20           -7.4554     5.8558     3.1452 C.3     
  21 O21           -7.5864     4.6649     3.9262 O.3     
  22 C22           -6.3366     4.1158     4.3526 C.3     
  23 C23           -5.4792     3.7982     3.1246 C.3     
  24 C24           -6.5869     2.8321     5.1467 C.3     
  25 C25           -8.8416     6.3387     2.7136 C.3     
  26 C26           -2.5931     5.4082    -4.5000 C.ar    
  27 C27           -3.0408     5.5219    -3.2015 C.ar    
  28 C28           -2.8896     4.4325    -2.3334 C.ar    
  29 C29           -2.2854     3.2699    -2.8310 C.ar    
  30 C30           -1.8673     3.2442    -4.1436 C.ar    
  31 N31           -2.0293     4.2940    -4.9278 N.ar    
  32 C32           -1.2156     2.0008    -4.6916 C.3     
  33 C33           -2.7550     6.5699    -5.4462 C.3     
  34 C34           -4.0914     6.7031    -6.1792 C.3     
  35 C35           -3.7387     7.6725    -5.0493 C.3     
  36 H36            1.8794    -2.7068    -0.2985 H       
  37 H37           -2.3367    -2.5989     0.3799 H       
  38 H38           -2.2829    -0.1409     0.3800 H       
  39 H39           -2.1254     1.6843     0.1351 H       
  40 H40            2.7401     0.2362     0.5930 H       
  41 H41            3.0155    -0.7066    -0.8914 H       
  42 H42            2.1521     0.8478    -0.9717 H       
  43 H43           -0.6658     3.9656     0.9362 H       
  44 H44           -0.7673     3.9601    -0.8408 H       
  45 H45           -6.4591     6.4736     1.3363 H       
  46 H46           -7.1221     4.8217     1.2835 H       
  47 H47           -6.9687     6.6291     3.7395 H       
  48 H48           -5.8173     4.8385     4.9820 H       
  49 H49           -5.9738     3.0359     2.5226 H       
  50 H50           -4.5040     3.4328     3.4462 H       
  51 H51           -7.1045     2.1096     4.5156 H       
  52 H52           -5.6341     2.4141     5.4714 H       
  53 H53           -7.2005     3.0582     6.0187 H       
  54 H54           -9.3280     5.5639     2.1210 H       
  55 H55           -9.4434     6.5520     3.5970 H       
  56 H56           -8.7409     7.2442     2.1152 H       
  57 H57           -3.5009     6.4367    -2.8582 H       
  58 H58           -2.1494     2.4076    -2.1952 H       
  59 H59           -1.9790     1.3447    -5.1100 H       
  60 H60           -0.5060     2.2762    -5.4717 H       
  61 H61           -0.6906     1.4820    -3.8895 H       
  62 H62           -1.8546     6.8678    -5.9834 H       
  63 H63           -4.0702     7.0889    -7.1984 H       
  64 H64           -4.8535     5.9504    -5.9770 H       
  65 H65           -4.2687     7.5577    -4.1038 H       
  66 H66           -3.4854     8.6962    -5.3252 H       
@<TRIPOS>BOND
   1    1    2 1
   2    1    8 2
   3    1    9 am
   4    2    3 ar
   5    2    7 ar
   6    3    4 ar
   7    3   10 1
   8    4    5 ar
   9    4   36 1
  10    5    6 ar
  11    5   11 1
  12    6    7 ar
  13    6   37 1
  14    7   38 1
  15    9   12 1
  16    9   39 1
  17   10   40 1
  18   10   41 1
  19   10   42 1
  20   12   16 1
  21   12   43 1
  22   12   44 1
  23   13   14 1
  24   13   17 1
  25   14   15 2
  26   14   18 1
  27   15   16 1
  28   16   17 2
  29   17   28 1
  30   18   19 1
  31   18   23 1
  32   19   20 1
  33   19   45 1
  34   19   46 1
  35   20   21 1
  36   20   25 1
  37   20   47 1
  38   21   22 1
  39   22   23 1
  40   22   24 1
  41   22   48 1
  42   23   49 1
  43   23   50 1
  44   24   51 1
  45   24   52 1
  46   24   53 1
  47   25   54 1
  48   25   55 1
  49   25   56 1
  50   26   27 ar
  51   26   31 ar
  52   26   33 1
  53   27   28 ar
  54   27   57 1
  55   28   29 ar
  56   29   30 ar
  57   29   58 1
  58   30   31 ar
  59   30   32 1
  60   32   59 1
  61   32   60 1
  62   32   61 1
  63   33   34 1
  64   33   35 1
  65   33   62 1
  66   34   35 1
  67   34   63 1
  68   34   64 1
  69   35   65 1
  70   35   66 1

#	End of record

