#	Name: ASD01881532
#	Creating user name:	WinNT
#	Creation time:	15. 06. 2019 19:42

#	Modifying user name:	WinNT
#	Modification time:	15. 06. 2019 19:42

#	Program:	/corina/corina34_cracker 3.40 0067  02.08.2006

@<TRIPOS>MOLECULE
ASD01881532
  39   41    0    0    0
SMALL
NO_CHARGES


@<TRIPOS>ATOM
   1 O1            -0.0176     1.4488     0.0100 O.3     
   2 C2             0.0021    -0.0041     0.0020 C.3     
   3 C3             1.4983    -0.3618    -0.0142 C.3     
   4 N4             2.1760     0.9458    -0.0137 N.pl3   
   5 C5             1.2451     1.9289     0.0005 C.2     
   6 C6             3.5109     1.2389    -0.0244 C.2     
   7 C7             3.9099     2.5280    -0.0209 C.2     
   8 C8             2.9177     3.5408    -0.0060 C.2     
   9 N9             1.6250     3.1995     0.0041 N.2     
  10 O10            3.2421     4.7184    -0.0018 O.2     
  11 C11           -0.6906    -0.5420    -1.2517 C.3     
  12 O12           -2.0827    -0.2236    -1.2005 O.3     
  13 C13           -2.8481    -0.6330    -2.2461 C.ar    
  14 C14           -4.2078    -0.3577    -2.2617 C.ar    
  15 C15           -4.9837    -0.7750    -3.3258 C.ar    
  16 C16           -4.4063    -1.4665    -4.3746 C.ar    
  17 C17           -3.0515    -1.7425    -4.3613 C.ar    
  18 C18           -2.2701    -1.3220    -3.3025 C.ar    
  19 C19           -5.2551    -1.9206    -5.5341 C.3     
  20 C20           -4.7355    -1.2862    -6.8258 C.3     
  21 C21           -5.1859    -3.4446    -5.6508 C.3     
  22 H22           -0.4743    -0.3969     0.9003 H       
  23 H23            1.7650    -0.9310     0.8763 H       
  24 H24            1.7479    -0.9214    -0.9157 H       
  25 H25            4.2418     0.4438    -0.0354 H       
  26 H26            4.9595     2.7822    -0.0289 H       
  27 H27           -0.2459    -0.0861    -2.1363 H       
  28 H28           -0.5668    -1.6239    -1.2993 H       
  29 H29           -4.6593     0.1821    -1.4425 H       
  30 H30           -6.0422    -0.5613    -3.3382 H       
  31 H31           -2.6030    -2.2835    -5.1814 H       
  32 H32           -1.2120    -1.5378    -3.2925 H       
  33 H33           -6.2884    -1.6153    -5.3695 H       
  34 H34           -5.3494    -1.6146    -7.6645 H       
  35 H35           -4.7847    -0.2005    -6.7427 H       
  36 H36           -3.7021    -1.5915    -6.9905 H       
  37 H37           -5.5561    -3.8966    -4.7306 H       
  38 H38           -5.7998    -3.7730    -6.4894 H       
  39 H39           -4.1526    -3.7499    -5.8154 H       
@<TRIPOS>BOND
   1    1    2 1
   2    1    5 1
   3    2    3 1
   4    2   11 1
   5    2   22 1
   6    3    4 1
   7    3   23 1
   8    3   24 1
   9    4    5 1
  10    4    6 1
  11    5    9 2
  12    6    7 2
  13    6   25 1
  14    7    8 1
  15    7   26 1
  16    8    9 1
  17    8   10 2
  18   11   12 1
  19   11   27 1
  20   11   28 1
  21   12   13 1
  22   13   14 ar
  23   13   18 ar
  24   14   15 ar
  25   14   29 1
  26   15   16 ar
  27   15   30 1
  28   16   17 ar
  29   16   19 1
  30   17   18 ar
  31   17   31 1
  32   18   32 1
  33   19   20 1
  34   19   21 1
  35   19   33 1
  36   20   34 1
  37   20   35 1
  38   20   36 1
  39   21   37 1
  40   21   38 1
  41   21   39 1

#	End of record

