#	Name: ASD03331423
#	Creating user name:	WinNT
#	Creation time:	15. 06. 2019 20:39

#	Modifying user name:	WinNT
#	Modification time:	15. 06. 2019 20:39

#	Program:	/corina/corina34_cracker 3.40 0067  02.08.2006

@<TRIPOS>MOLECULE
ASD03331423
  76   80    0    0    0
SMALL
NO_CHARGES


@<TRIPOS>ATOM
   1 N1            -0.3508     1.1920    -1.3926 N.am    
   2 C2            -0.6333    -0.1692    -1.8683 C.3     
   3 C3            -1.4274    -0.0799    -3.1752 C.3     
   4 C4            -0.6607     0.7889    -4.1750 C.3     
   5 C5            -0.5018     2.2018    -3.6089 C.3     
   6 C6             0.3028     2.1384    -2.3068 C.3     
   7 C7             0.7004     0.1901    -4.4199 C.2     
   8 O8             1.6537     0.9127    -4.6197 O.2     
   9 N9             0.8582    -1.1484    -4.4171 N.am    
  10 N10           -1.4034     0.8495    -5.4410 N.3     
  11 C11           -0.6788     1.6557    -6.4405 C.3     
  12 C12           -0.4593     0.7602    -7.6780 C.3     
  13 C13           -1.5666    -0.3164    -7.5312 C.3     
  14 C14           -1.6185    -0.5044    -5.9945 C.3     
  15 F15           -0.6352     1.4932    -8.8565 F       
  16 F16            0.8098     0.1723    -7.6443 F       
  17 C17           -0.6900     1.5670    -0.1433 C.2     
  18 O18           -1.3190     0.8086     0.5697 O.2     
  19 N19           -0.3682     4.8870     1.3237 N.pl3   
  20 C20           -1.1032     3.7838     1.0396 C.2     
  21 C21           -0.2988     2.8954     0.3586 C.2     
  22 C22            0.9777     3.5027     0.2327 C.2     
  23 C23            0.9049     4.7187     0.8317 C.2     
  24 C24           -2.5490     3.5664     1.4050 C.3     
  25 C25           -3.4436     4.0851     0.2773 C.3     
  26 C26           -4.9114     3.8644     0.6483 C.3     
  27 C27           -5.8060     4.3830    -0.4794 C.3     
  28 O28           -7.1769     4.1769    -0.1329 O.3     
  29 C29            2.0086     5.6972     0.9378 C.ar    
  30 C30            3.2552     5.2980     1.4252 C.ar    
  31 C31            4.2814     6.2163     1.5212 C.ar    
  32 C32            4.0764     7.5302     1.1355 C.ar    
  33 C33            2.8425     7.9313     0.6522 C.ar    
  34 C34            1.8106     7.0215     0.5460 C.ar    
  35 Cl35           5.3715     8.6796     1.2591 Cl      
  36 Cl36           3.5132     3.6510     1.9095 Cl      
  37 C37           -0.8332     6.0203     2.0046 C.ar    
  38 C38           -0.3523     6.3153     3.2732 C.ar    
  39 C39           -0.8117     7.4329     3.9419 C.ar    
  40 C40           -1.7507     8.2584     3.3486 C.ar    
  41 C41           -2.2319     7.9662     2.0844 C.ar    
  42 C42           -1.7713     6.8529     1.4093 C.ar    
  43 Cl43          -2.3262     9.6625     4.1918 Cl      
  44 H44            0.3042    -0.6962    -2.0456 H       
  45 H45           -1.2193    -0.7033    -1.1204 H       
  46 H46           -1.5606    -1.0794    -3.5890 H       
  47 H47           -2.4025     0.3659    -2.9787 H       
  48 H48            0.0238     2.8262    -4.3313 H       
  49 H49           -1.4856     2.6261    -3.4083 H       
  50 H50            0.3345     3.1267    -1.8483 H       
  51 H51            1.3167     1.7995    -2.5199 H       
  52 H52            0.0865    -1.7275    -4.3176 H       
  53 H53            1.7436    -1.5325    -4.5144 H       
  54 H54           -1.2725     2.5278    -6.7145 H       
  55 H55            0.2828     1.9713    -6.0359 H       
  56 H56           -2.5200     0.0496    -7.9122 H       
  57 H57           -1.2789    -1.2428    -8.0284 H       
  58 H58           -0.8265    -1.1782    -5.6677 H       
  59 H59           -2.5930    -0.8877    -5.6918 H       
  60 H60            1.8450     3.0771    -0.2500 H       
  61 H61           -2.7304     2.5018     1.5523 H       
  62 H62           -2.7760     4.1044     2.3254 H       
  63 H63           -3.2621     5.1497     0.1301 H       
  64 H64           -3.2166     3.5471    -0.6431 H       
  65 H65           -5.0928     2.7997     0.7956 H       
  66 H66           -5.1384     4.4024     1.5687 H       
  67 H67           -5.6245     5.4477    -0.6266 H       
  68 H68           -5.5790     3.8451    -1.3998 H       
  69 H69           -7.8025     4.4828    -0.8039 H       
  70 H70            5.2459     5.9094     1.8982 H       
  71 H71            2.6887     8.9576     0.3533 H       
  72 H72            0.8502     7.3349     0.1643 H       
  73 H73            0.3803     5.6712     3.7368 H       
  74 H74           -0.4381     7.6627     4.9289 H       
  75 H75           -2.9649     8.6118     1.6236 H       
  76 H76           -2.1436     6.6280     0.4207 H       
@<TRIPOS>BOND
   1    1    2 1
   2    1    6 1
   3    1   17 am
   4    2    3 1
   5    2   44 1
   6    2   45 1
   7    3    4 1
   8    3   46 1
   9    3   47 1
  10    4    5 1
  11    4    7 1
  12    4   10 1
  13    5    6 1
  14    5   48 1
  15    5   49 1
  16    6   50 1
  17    6   51 1
  18    7    8 2
  19    7    9 am
  20    9   52 1
  21    9   53 1
  22   10   11 1
  23   10   14 1
  24   11   12 1
  25   11   54 1
  26   11   55 1
  27   12   13 1
  28   12   15 1
  29   12   16 1
  30   13   14 1
  31   13   56 1
  32   13   57 1
  33   14   58 1
  34   14   59 1
  35   17   18 2
  36   17   21 1
  37   19   20 1
  38   19   23 1
  39   19   37 1
  40   20   21 2
  41   20   24 1
  42   21   22 1
  43   22   23 2
  44   22   60 1
  45   23   29 1
  46   24   25 1
  47   24   61 1
  48   24   62 1
  49   25   26 1
  50   25   63 1
  51   25   64 1
  52   26   27 1
  53   26   65 1
  54   26   66 1
  55   27   28 1
  56   27   67 1
  57   27   68 1
  58   28   69 1
  59   29   30 ar
  60   29   34 ar
  61   30   31 ar
  62   30   36 1
  63   31   32 ar
  64   31   70 1
  65   32   33 ar
  66   32   35 1
  67   33   34 ar
  68   33   71 1
  69   34   72 1
  70   37   38 ar
  71   37   42 ar
  72   38   39 ar
  73   38   73 1
  74   39   40 ar
  75   39   74 1
  76   40   41 ar
  77   40   43 1
  78   41   42 ar
  79   41   75 1
  80   42   76 1

#	End of record

