#	Name: ASD06350033
#	Creating user name:	WinNT
#	Creation time:	15. 06. 2019 21:06

#	Modifying user name:	WinNT
#	Modification time:	15. 06. 2019 21:06

#	Program:	/corina/corina34_cracker 3.40 0067  02.08.2006

@<TRIPOS>MOLECULE
ASD06350033
  42   44    0    0    0
SMALL
NO_CHARGES


@<TRIPOS>ATOM
   1 C1            -0.1470     0.4675     0.5104 C.3     
   2 O2            -0.1501    -0.9541     0.3643 O.3     
   3 C3             0.4679    -1.4628    -0.7339 C.ar    
   4 C4             0.5027    -2.8345    -0.9388 C.ar    
   5 C5             1.1316    -3.3491    -2.0559 C.ar    
   6 C6             1.7260    -2.4984    -2.9695 C.ar    
   7 C7             1.6932    -1.1310    -2.7674 C.ar    
   8 C8             1.0602    -0.6110    -1.6550 C.ar    
   9 C9             2.4114    -3.0626    -4.1873 C.3     
  10 N10            1.4467    -3.1705    -5.2845 N.pl3   
  11 C11            1.8482    -3.6662    -6.5127 C.ar    
  12 N12            3.1087    -4.0383    -6.6784 N.ar    
  13 C13            3.5295    -4.5173    -7.8395 C.ar    
  14 C14            2.6365    -4.6279    -8.8883 C.ar    
  15 C15            1.3162    -4.2281    -8.6833 C.ar    
  16 N16            0.9612    -3.7619    -7.4920 N.ar    
  17 O17            0.4075    -4.3193    -9.6841 O.3     
  18 C18           -0.8866    -4.0084    -9.4021 C.ar    
  19 C19           -1.7787    -5.0092    -9.0500 C.ar    
  20 C20           -3.0931    -4.6945    -8.7629 C.ar    
  21 C21           -3.5216    -3.3755    -8.8273 C.ar    
  22 C22           -2.6284    -2.3720    -9.1801 C.ar    
  23 C23           -1.3122    -2.6870    -9.4615 C.ar    
  24 F24           -0.4425    -1.7118    -9.8047 F       
  25 N25           -4.8527    -3.0572    -8.5375 N.pl3   
  26 H26            0.8814     0.8252     0.5609 H       
  27 H27           -0.6481     0.9217    -0.3444 H       
  28 H28           -0.6718     0.7398     1.4261 H       
  29 H29            0.0388    -3.4994    -0.2253 H       
  30 H30            1.1592    -4.4169    -2.2156 H       
  31 H31            2.1588    -0.4686    -3.4821 H       
  32 H32            1.0347     0.4571    -1.4976 H       
  33 H33            3.2266    -2.4026    -4.4839 H       
  34 H34            2.8097    -4.0503    -3.9552 H       
  35 H35            0.5265    -2.8946    -5.1502 H       
  36 H36            4.5592    -4.8178    -7.9652 H       
  37 H37            2.9540    -5.0149    -9.8453 H       
  38 H38           -1.4463    -6.0355    -9.0004 H       
  39 H39           -3.7875    -5.4749    -8.4887 H       
  40 H40           -2.9611    -1.3458    -9.2307 H       
  41 H41           -5.4764    -3.7582    -8.2915 H       
  42 H42           -5.1519    -2.1357    -8.5826 H       
@<TRIPOS>BOND
   1    1    2 1
   2    1   26 1
   3    1   27 1
   4    1   28 1
   5    2    3 1
   6    3    4 ar
   7    3    8 ar
   8    4    5 ar
   9    4   29 1
  10    5    6 ar
  11    5   30 1
  12    6    7 ar
  13    6    9 1
  14    7    8 ar
  15    7   31 1
  16    8   32 1
  17    9   10 1
  18    9   33 1
  19    9   34 1
  20   10   11 1
  21   10   35 1
  22   11   12 ar
  23   11   16 ar
  24   12   13 ar
  25   13   14 ar
  26   13   36 1
  27   14   15 ar
  28   14   37 1
  29   15   16 ar
  30   15   17 1
  31   17   18 1
  32   18   19 ar
  33   18   23 ar
  34   19   20 ar
  35   19   38 1
  36   20   21 ar
  37   20   39 1
  38   21   22 ar
  39   21   25 1
  40   22   23 ar
  41   22   40 1
  42   23   24 1
  43   25   41 1
  44   25   42 1

#	End of record

