#	Name: ASD09890025
#	Creating user name:	WinNT
#	Creation time:	15. 06. 2019 21:24

#	Modifying user name:	WinNT
#	Modification time:	15. 06. 2019 21:24

#	Program:	/corina/corina34_cracker 3.40 0067  02.08.2006

@<TRIPOS>MOLECULE
ASD09890025
  46   48    0    0    0
SMALL
NO_CHARGES


@<TRIPOS>ATOM
   1 C1            -0.0167     1.3784     0.0096 C.ar    
   2 C2             0.0021    -0.0041     0.0020 C.ar    
   3 C3             1.2074    -0.6814    -0.0127 C.ar    
   4 C4             2.3963     0.0221    -0.0203 C.ar    
   5 C5             2.3802     1.4093    -0.0132 C.ar    
   6 C6             1.1695     2.0865     0.0021 C.ar    
   7 O7             3.5484     2.1036    -0.0202 O.3     
   8 C8             3.4557     3.5296    -0.0122 C.3     
   9 C9             4.8408     4.1231    -0.0217 C.2     
  10 N10            5.5769     4.4484    -1.1296 N.pl3   
  11 C11            6.7570     4.9503    -0.6544 C.2     
  12 N12            6.6910     4.9106     0.6564 N.2     
  13 N13            5.5580     4.4273     1.0231 N.2     
  14 S14            8.1097     5.5381    -1.6183 S.3     
  15 C15            9.2518     6.0167    -0.2982 C.3     
  16 C16            5.1990     4.2979    -2.4733 C.ar    
  17 C17           10.5835     6.4559    -0.9103 C.3     
  18 C18            8.6511     7.1751     0.5007 C.3     
  19 C19            4.5391     5.3260    -3.1289 C.ar    
  20 C20            4.1678     5.1758    -4.4520 C.ar    
  21 C21            4.4524     4.0018    -5.1243 C.ar    
  22 C22            5.1101     2.9723    -4.4770 C.ar    
  23 C23            5.4910     3.1176    -3.1529 C.ar    
  24 O24            6.1379     2.1062    -2.5149 O.3     
  25 C25            6.3929     0.9206    -3.2707 C.3     
  26 H26           -0.9595     1.9052     0.0170 H       
  27 H27           -0.9263    -0.5558     0.0080 H       
  28 H28            1.2194    -1.7613    -0.0179 H       
  29 H29            3.3375    -0.5074    -0.0315 H       
  30 H30            1.1543     3.1664     0.0073 H       
  31 H31            2.9113     3.8632    -0.8956 H       
  32 H32            2.9274     3.8543     0.8842 H       
  33 H33            9.4188     5.1669     0.3636 H       
  34 H34           10.4165     7.3057    -1.5721 H       
  35 H35           11.2713     6.7441    -0.1153 H       
  36 H36           11.0114     5.6307    -1.4795 H       
  37 H37            9.3389     7.4633     1.2957 H       
  38 H38            8.4841     8.0249    -0.1611 H       
  39 H39            7.7024     6.8622     0.9368 H       
  40 H40            4.3148     6.2439    -2.6060 H       
  41 H41            3.6538     5.9773    -4.9616 H       
  42 H42            4.1598     3.8885    -6.1577 H       
  43 H43            5.3310     2.0564    -5.0049 H       
  44 H44            5.4482     0.4959    -3.6103 H       
  45 H45            7.0120     1.1659    -4.1336 H       
  46 H46            6.9131     0.1955    -2.6447 H       
@<TRIPOS>BOND
   1    1    2 ar
   2    1    6 ar
   3    1   26 1
   4    2    3 ar
   5    2   27 1
   6    3    4 ar
   7    3   28 1
   8    4    5 ar
   9    4   29 1
  10    5    6 ar
  11    5    7 1
  12    6   30 1
  13    7    8 1
  14    8    9 1
  15    8   31 1
  16    8   32 1
  17    9   10 1
  18    9   13 2
  19   10   11 1
  20   10   16 1
  21   11   12 2
  22   11   14 1
  23   12   13 1
  24   14   15 1
  25   15   17 1
  26   15   18 1
  27   15   33 1
  28   16   19 ar
  29   16   23 ar
  30   17   34 1
  31   17   35 1
  32   17   36 1
  33   18   37 1
  34   18   38 1
  35   18   39 1
  36   19   20 ar
  37   19   40 1
  38   20   21 ar
  39   20   41 1
  40   21   22 ar
  41   21   42 1
  42   22   23 ar
  43   22   43 1
  44   23   24 1
  45   24   25 1
  46   25   44 1
  47   25   45 1
  48   25   46 1

#	End of record

