#	Name: ASD04882166
#	Creating user name:	WinNT
#	Creation time:	15. 06. 2019 20:54

#	Modifying user name:	WinNT
#	Modification time:	15. 06. 2019 20:54

#	Program:	/corina/corina34_cracker 3.40 0067  02.08.2006

@<TRIPOS>MOLECULE
ASD04882166
  77   81    0    0    0
SMALL
NO_CHARGES


@<TRIPOS>ATOM
   1 C1            -0.1616     1.4838     0.4571 C.ar    
   2 C2            -0.1423     0.0089     0.4911 C.2     
   3 N3            -1.1634    -0.6909    -0.0418 N.am    
   4 C4            -1.0911    -2.0881    -0.1173 C.ar    
   5 C5            -2.2495    -2.8571     0.0250 C.ar    
   6 C6            -2.1791    -4.2436    -0.0492 C.ar    
   7 C7            -0.9685    -4.8642    -0.2631 C.ar    
   8 C8             0.1938    -4.1012    -0.4063 C.ar    
   9 C9             0.1248    -2.7068    -0.3383 C.ar    
  10 N10           -3.4756    -2.2337     0.2418 N.3     
  11 C11           -3.5005    -1.5607     1.5480 C.3     
  12 C12           -4.5822    -3.1937     0.1261 C.3     
  13 C13           -5.9131    -2.4563     0.2917 C.3     
  14 N14           -5.9380    -1.7833     1.5979 N.3     
  15 C15           -4.8314    -0.8233     1.7137 C.3     
  16 C16           -7.1679    -1.1580     1.8154 C.ar    
  17 C17           -7.6089    -0.1684     0.9465 C.ar    
  18 C18           -7.9554    -1.5287     2.8983 C.ar    
  19 C19           -9.1708    -0.9084     3.1105 C.ar    
  20 C20           -9.6045     0.0804     2.2462 C.ar    
  21 C21           -8.8256     0.4480     1.1646 C.ar    
  22 C22            1.4906    -4.7664    -0.6346 C.2     
  23 N23            1.5553    -6.1107    -0.7051 N.am    
  24 O24            2.5013    -4.1017    -0.7590 O.2     
  25 O25            0.7951    -0.5753     0.9999 O.2     
  26 C26            2.8431    -6.7713    -0.9317 C.3     
  27 C27            2.6392    -8.2872    -0.9690 C.3     
  28 C28            3.9842    -8.9770    -1.2057 C.3     
  29 N29            3.7889   -10.4285    -1.2413 N.am    
  30 C30            3.5208   -11.1306    -2.3558 C.2     
  31 C31            3.3714   -12.5987    -2.0226 C.3     
  32 C32            3.1768   -12.6215    -0.4888 C.3     
  33 C33            3.8671   -11.3037    -0.0658 C.3     
  34 C34           -7.4841    -2.6067     3.8400 C.3     
  35 O35            3.4138   -10.6561    -3.4668 O.2     
  36 C36            0.8969     2.2133     1.0094 C.ar    
  37 C37           -1.2345     2.1581    -0.1320 C.ar    
  38 C38           -1.2475     3.5351    -0.1610 C.ar    
  39 C39           -0.1982     4.2547     0.3927 C.ar    
  40 C40            0.8716     3.5945     0.9738 C.ar    
  41 F41           -0.2176     5.6052     0.3597 F       
  42 F42            1.9405     1.5692     1.5762 F       
  43 H43           -1.9484    -0.2273    -0.3730 H       
  44 H44           -3.0758    -4.8352     0.0615 H       
  45 H45           -0.9171    -5.9415    -0.3199 H       
  46 H46            1.0212    -2.1146    -0.4489 H       
  47 H47           -3.3939    -2.3012     2.3407 H       
  48 H48           -2.6793    -0.8461     1.6046 H       
  49 H49           -4.5497    -3.6697    -0.8540 H       
  50 H50           -4.4879    -3.9528     0.9027 H       
  51 H51           -6.0197    -1.7159    -0.5010 H       
  52 H52           -6.7342    -3.1709     0.2351 H       
  53 H53           -4.8639    -0.3474     2.6937 H       
  54 H54           -4.9257    -0.0643     0.9371 H       
  55 H55           -7.0009     0.1192     0.1014 H       
  56 H56           -9.7835    -1.1960     3.9521 H       
  57 H57          -10.5558     0.5634     2.4140 H       
  58 H58           -9.1672     1.2205     0.4916 H       
  59 H59            0.7491    -6.6409    -0.6058 H       
  60 H60            3.2605    -6.4374    -1.8817 H       
  61 H61            3.5292    -6.5167    -0.1239 H       
  62 H62            2.2218    -8.6211    -0.0190 H       
  63 H63            1.9531    -8.5418    -1.7768 H       
  64 H64            4.4016    -8.6431    -2.1556 H       
  65 H65            4.6702    -8.7225    -0.3978 H       
  66 H66            2.4987   -13.0168    -2.5242 H       
  67 H67            4.2716   -13.1466    -2.3011 H       
  68 H68            2.1180   -12.6125    -0.2298 H       
  69 H69            3.6781   -13.4814    -0.0447 H       
  70 H70            4.9064   -11.4919     0.2034 H       
  71 H71            3.3357   -10.8515     0.7716 H       
  72 H72           -6.9065    -2.1567     4.6474 H       
  73 H73           -8.3462    -3.1276     4.2565 H       
  74 H74           -6.8588    -3.3154     3.2971 H       
  75 H75           -2.0521     1.6004    -0.5643 H       
  76 H76           -2.0767     4.0563    -0.6162 H       
  77 H77            1.6855     4.1600     1.4031 H       
@<TRIPOS>BOND
   1    1    2 1
   2    1   36 ar
   3    1   37 ar
   4    2    3 am
   5    2   25 2
   6    3    4 1
   7    3   43 1
   8    4    5 ar
   9    4    9 ar
  10    5    6 ar
  11    5   10 1
  12    6    7 ar
  13    6   44 1
  14    7    8 ar
  15    7   45 1
  16    8    9 ar
  17    8   22 1
  18    9   46 1
  19   10   11 1
  20   10   12 1
  21   11   15 1
  22   11   47 1
  23   11   48 1
  24   12   13 1
  25   12   49 1
  26   12   50 1
  27   13   14 1
  28   13   51 1
  29   13   52 1
  30   14   15 1
  31   14   16 1
  32   15   53 1
  33   15   54 1
  34   16   17 ar
  35   16   18 ar
  36   17   21 ar
  37   17   55 1
  38   18   19 ar
  39   18   34 1
  40   19   20 ar
  41   19   56 1
  42   20   21 ar
  43   20   57 1
  44   21   58 1
  45   22   23 am
  46   22   24 2
  47   23   26 1
  48   23   59 1
  49   26   27 1
  50   26   60 1
  51   26   61 1
  52   27   28 1
  53   27   62 1
  54   27   63 1
  55   28   29 1
  56   28   64 1
  57   28   65 1
  58   29   30 am
  59   29   33 1
  60   30   31 1
  61   30   35 2
  62   31   32 1
  63   31   66 1
  64   31   67 1
  65   32   33 1
  66   32   68 1
  67   32   69 1
  68   33   70 1
  69   33   71 1
  70   34   72 1
  71   34   73 1
  72   34   74 1
  73   36   42 1
  74   36   40 ar
  75   37   38 ar
  76   37   75 1
  77   38   39 ar
  78   38   76 1
  79   39   40 ar
  80   39   41 1
  81   40   77 1

#	End of record

