#	Name: ASD08150497
#	Creating user name:	WinNT
#	Creation time:	15. 06. 2019 21:16

#	Modifying user name:	WinNT
#	Modification time:	15. 06. 2019 21:16

#	Program:	/corina/corina34_cracker 3.40 0067  02.08.2006

@<TRIPOS>MOLECULE
ASD08150497
  48   52    0    0    0
SMALL
NO_CHARGES


@<TRIPOS>ATOM
   1 N1             1.0066     3.1194    -1.6931 N.am    
   2 C2             1.4473     2.5141    -2.8130 C.2     
   3 C3             2.6545     1.7860    -2.8151 C.2     
   4 C4             3.3932     1.6850    -1.6808 C.2     
   5 C5             2.9326     2.3205    -0.5006 C.ar    
   6 C6             3.6609     2.2471     0.7023 C.ar    
   7 N7             3.2340     2.8346     1.7894 N.ar    
   8 C8             2.0899     3.5347     1.8248 C.ar    
   9 C9             1.2928     3.6614     0.6606 C.ar    
  10 C10            1.7268     3.0375    -0.5324 C.ar    
  11 C11           -0.2862     4.9874     1.8975 C.ar    
  12 C12            0.5075     4.8578     3.0451 C.ar    
  13 C13            1.6684     4.1497     3.0149 C.ar    
  14 O14            0.7932     2.5967    -3.8385 O.2     
  15 C15           -0.1923     3.8413    -1.7183 C.ar    
  16 C16           -0.1797     5.1985    -2.0052 C.ar    
  17 C17           -1.3709     5.9107    -2.0297 C.ar    
  18 C18           -2.5715     5.2625    -1.7670 C.ar    
  19 C19           -2.5802     3.9106    -1.4812 C.ar    
  20 C20           -1.3970     3.1980    -1.4617 C.ar    
  21 N21           -1.3626     7.2774    -2.3177 N.pl3   
  22 C22           -3.8653     6.0347    -1.7934 C.3     
  23 C23            0.1018     4.3930     0.7084 C.ar    
  24 C24           -1.5491     5.7652     1.9568 C.2     
  25 C25           -1.7614     6.9047     2.6769 C.2     
  26 N26           -3.0337     7.2941     2.4585 N.pl3   
  27 N27           -3.6278     6.3772     1.5830 N.2     
  28 C28           -2.7446     5.4647     1.2751 C.2     
  29 C29           -3.6826     8.4729     3.0379 C.3     
  30 H30            2.9925     1.3068    -3.7220 H       
  31 H31            4.3184     1.1279    -1.6776 H       
  32 H32            4.5888     1.6951     0.7274 H       
  33 H33            0.1933     5.3268     3.9659 H       
  34 H34            2.2676     4.0597     3.9089 H       
  35 H35            0.7549     5.7000    -2.2087 H       
  36 H36           -3.5147     3.4091    -1.2770 H       
  37 H37           -1.4074     2.1414    -1.2383 H       
  38 H38           -0.5241     7.7294    -2.5007 H       
  39 H39           -2.1953     7.7745    -2.3347 H       
  40 H40           -4.2825     6.0104    -2.8001 H       
  41 H41           -4.5717     5.5839    -1.0964 H       
  42 H42           -3.6775     7.0683    -1.5028 H       
  43 H43           -0.5106     4.4939    -0.1755 H       
  44 H44           -1.0409     7.4039     3.3079 H       
  45 H45           -2.9054     4.6227     0.6181 H       
  46 H46           -3.5333     9.3296     2.3807 H       
  47 H47           -4.7499     8.2821     3.1494 H       
  48 H48           -3.2472     8.6841     4.0146 H       
@<TRIPOS>BOND
   1    1    2 am
   2    1   10 1
   3    1   15 1
   4    2    3 1
   5    2   14 2
   6    3    4 2
   7    3   30 1
   8    4    5 1
   9    4   31 1
  10    5    6 ar
  11    5   10 ar
  12    6    7 ar
  13    6   32 1
  14    7    8 ar
  15    8    9 ar
  16    8   13 ar
  17    9   10 ar
  18    9   23 ar
  19   11   12 ar
  20   11   24 1
  21   11   23 ar
  22   12   13 ar
  23   12   33 1
  24   13   34 1
  25   15   16 ar
  26   15   20 ar
  27   16   17 ar
  28   16   35 1
  29   17   18 ar
  30   17   21 1
  31   18   19 ar
  32   18   22 1
  33   19   20 ar
  34   19   36 1
  35   20   37 1
  36   21   38 1
  37   21   39 1
  38   22   40 1
  39   22   41 1
  40   22   42 1
  41   23   43 1
  42   24   25 2
  43   24   28 1
  44   25   26 1
  45   25   44 1
  46   26   27 1
  47   26   29 1
  48   27   28 2
  49   28   45 1
  50   29   46 1
  51   29   47 1
  52   29   48 1

#	End of record

