#	Name: ASD03730850
#	Creating user name:	WinNT
#	Creation time:	15. 06. 2019 20:44

#	Modifying user name:	WinNT
#	Modification time:	15. 06. 2019 20:44

#	Program:	/corina/corina34_cracker 3.40 0067  02.08.2006

@<TRIPOS>MOLECULE
ASD03730850
  69   75    0    0    0
SMALL
NO_CHARGES


@<TRIPOS>ATOM
   1 C1            -0.0434     1.4502    -0.2721 C.2     
   2 C2             0.0044     0.0030     0.0266 C.ar    
   3 C3             1.2278    -0.6690     0.0445 C.ar    
   4 C4             1.2654    -2.0192     0.3244 C.ar    
   5 C5             0.0939    -2.7075     0.5865 C.ar    
   6 C6            -1.1218    -2.0475     0.5703 C.ar    
   7 C7            -1.1728    -0.6959     0.2975 C.ar    
   8 O8             0.9890     2.0764    -0.4117 O.2     
   9 N9            -1.2318     2.0741    -0.3951 N.am    
  10 C10            2.5045     0.0787    -0.2417 C.3     
  11 O11            3.1088    -6.9750    -1.4947 O.3     
  12 C12            3.8756    -8.1830    -1.6559 C.3     
  13 O13            5.0481    -7.7512    -2.3713 O.3     
  14 C14            5.2155    -6.4370    -2.0399 C.ar    
  15 C15            4.0224    -5.9601    -1.5018 C.ar    
  16 C16            6.3076    -5.5957    -2.1547 C.ar    
  17 C17            6.2239    -4.2708    -1.7373 C.ar    
  18 C18            5.0242    -3.8037    -1.2091 C.ar    
  19 C19            3.9354    -4.6416    -1.0876 C.ar    
  20 O20            7.1740    -3.2923    -1.7461 O.3     
  21 C21            5.2368    -2.3498    -0.8820 C.3     
  22 C22            6.5337    -2.0072    -1.6278 C.3     
  23 N23            3.6310    -0.8577    -0.2344 N.am    
  24 C24            4.0891    -1.4924    -1.3318 C.2     
  25 C25            5.3593    -2.1085     0.5933 C.ar    
  26 C26            6.2048    -2.5879     1.5688 C.ar    
  27 C27            6.0637    -2.1633     2.8780 C.ar    
  28 C28            5.0711    -1.2572     3.2045 C.ar    
  29 C29            4.2211    -0.7749     2.2311 C.ar    
  30 C30            4.3562    -1.1964     0.9106 C.ar    
  31 O31            3.6589    -1.3905    -2.4612 O.2     
  32 C32           -1.2791     3.5081    -0.6910 C.3     
  33 C33           -2.7373     3.9630    -0.7778 C.3     
  34 C34           -2.7860     5.4382    -1.0822 C.ar    
  35 C35           -2.8141     5.8714    -2.3950 C.ar    
  36 C36           -2.8588     7.2231    -2.6767 C.ar    
  37 C37           -2.8754     8.1461    -1.6411 C.ar    
  38 C38           -2.8471     7.7088    -0.3248 C.ar    
  39 C39           -2.8082     6.3559    -0.0483 C.ar    
  40 O40           -2.9188     9.4763    -1.9157 O.3     
  41 C41           -2.9337    10.3689    -0.7998 C.3     
  42 H42            2.2112    -2.5404     0.3386 H       
  43 H43            0.1287    -3.7647     0.8044 H       
  44 H44           -2.0325    -2.5904     0.7757 H       
  45 H45           -2.1221    -0.1809     0.2892 H       
  46 H46           -2.0557     1.5736    -0.2876 H       
  47 H47            2.4348     0.5557    -1.2193 H       
  48 H48            2.6593     0.8394     0.5235 H       
  49 H49            4.1496    -8.5951    -0.6848 H       
  50 H50            3.3184    -8.9151    -2.2404 H       
  51 H51            7.2313    -5.9696    -2.5710 H       
  52 H52            3.0126    -4.2684    -0.6687 H       
  53 H53            7.1470    -1.3215    -1.0431 H       
  54 H54            6.3162    -1.5911    -2.6115 H       
  55 H55            6.9791    -3.2956     1.3116 H       
  56 H56            6.7272    -2.5384     3.6431 H       
  57 H57            4.9609    -0.9259     4.2265 H       
  58 H58            3.4482    -0.0679     2.4940 H       
  59 H59           -0.7730     4.0595     0.1013 H       
  60 H60           -0.7816     3.6994    -1.6418 H       
  61 H61           -3.2434     3.4116    -1.5702 H       
  62 H62           -3.2348     3.7717     0.1730 H       
  63 H63           -2.8008     5.1524    -3.2008 H       
  64 H64           -2.8803     7.5610    -3.7022 H       
  65 H65           -2.8599     8.4254     0.4831 H       
  66 H66           -2.7910     6.0149     0.9763 H       
  67 H67           -2.9689    11.3978    -1.1580 H       
  68 H68           -3.8112    10.1679    -0.1854 H       
  69 H69           -2.0322    10.2219    -0.2050 H       
@<TRIPOS>BOND
   1    1    2 1
   2    1    8 2
   3    1    9 am
   4    2    3 ar
   5    2    7 ar
   6    3    4 ar
   7    3   10 1
   8    4    5 ar
   9    4   42 1
  10    5    6 ar
  11    5   43 1
  12    6    7 ar
  13    6   44 1
  14    7   45 1
  15    9   32 1
  16    9   46 1
  17   10   23 1
  18   10   47 1
  19   10   48 1
  20   11   12 1
  21   11   15 1
  22   12   13 1
  23   12   49 1
  24   12   50 1
  25   13   14 1
  26   14   15 ar
  27   14   16 ar
  28   15   19 ar
  29   16   17 ar
  30   16   51 1
  31   17   18 ar
  32   17   20 1
  33   18   19 ar
  34   18   21 1
  35   19   52 1
  36   20   22 1
  37   21   22 1
  38   21   24 1
  39   21   25 1
  40   22   53 1
  41   22   54 1
  42   23   24 am
  43   23   30 1
  44   24   31 2
  45   25   26 ar
  46   25   30 ar
  47   26   27 ar
  48   26   55 1
  49   27   28 ar
  50   27   56 1
  51   28   29 ar
  52   28   57 1
  53   29   30 ar
  54   29   58 1
  55   32   33 1
  56   32   59 1
  57   32   60 1
  58   33   34 1
  59   33   61 1
  60   33   62 1
  61   34   35 ar
  62   34   39 ar
  63   35   36 ar
  64   35   63 1
  65   36   37 ar
  66   36   64 1
  67   37   38 ar
  68   37   40 1
  69   38   39 ar
  70   38   65 1
  71   39   66 1
  72   40   41 1
  73   41   67 1
  74   41   68 1
  75   41   69 1

#	End of record

