#	Name: ASD00068006
#	Creating user name:	WinNT
#	Creation time:	15. 06. 2019 18:29

#	Modifying user name:	WinNT
#	Modification time:	15. 06. 2019 18:29

#	Program:	/corina/corina34_cracker 3.40 0067  02.08.2006

@<TRIPOS>MOLECULE
ASD00068006
  37   39    0    0    0
SMALL
NO_CHARGES


@<TRIPOS>ATOM
   1 C1            -0.0184     1.5028     0.0103 C.2     
   2 C2             0.0021    -0.0041     0.0020 C.3     
   3 C3             1.4513    -0.4944    -0.0145 C.3     
   4 C4             1.4726    -2.0183    -0.1486 C.3     
   5 O5             1.0197     2.1211     0.0037 O.2     
   6 O6            -1.1898     2.1580     0.0194 O.3     
   7 C7             0.9030    -2.4128    -1.4868 C.2     
   8 N8            -0.2677    -2.0601    -1.9319 N.2     
   9 C9            -0.4642    -2.5870    -3.1678 C.ar    
  10 C10            0.6909    -3.3189    -3.4893 C.ar    
  11 N11            1.5401    -3.1847    -2.4078 N.pl3   
  12 C12           -1.5187    -2.5283    -4.0831 C.ar    
  13 C13           -1.4159    -3.1868    -5.2882 C.ar    
  14 C14           -0.2722    -3.9090    -5.6016 C.ar    
  15 C15            0.7776    -3.9773    -4.7090 C.ar    
  16 Cl16           2.2036    -4.8822    -5.1102 Cl      
  17 Cl17          -2.7267    -3.1138    -6.4242 Cl      
  18 C18            2.1318    -0.0935     1.2690 C.ar    
  19 C19            3.2468     0.7231     1.2340 C.ar    
  20 C20            3.8714     1.0911     2.4108 C.ar    
  21 C21            3.3806     0.6421     3.6239 C.ar    
  22 C22            2.2647    -0.1751     3.6582 C.ar    
  23 C23            1.6376    -0.5379     2.4811 C.ar    
  24 Cl24           4.1649     1.1034     5.1023 Cl      
  25 H25           -0.4983    -0.3791     0.8948 H       
  26 H26           -0.5153    -0.3696    -0.8850 H       
  27 H27            1.9763    -0.0479    -0.8589 H       
  28 H28            2.4995    -2.3756    -0.0712 H       
  29 H29            0.8729    -2.4615     0.6465 H       
  30 H30           -1.1523     3.1243     0.0245 H       
  31 H31            2.4257    -3.5709    -2.3206 H       
  32 H32           -2.4115    -1.9687    -3.8458 H       
  33 H33           -0.2040    -4.4210    -6.5501 H       
  34 H34            3.6300     1.0732     0.2869 H       
  35 H35            4.7426     1.7287     2.3833 H       
  36 H36            1.8811    -0.5259     4.6049 H       
  37 H37            0.7639    -1.1722     2.5081 H       
@<TRIPOS>BOND
   1    1    2 1
   2    1    5 2
   3    1    6 1
   4    2    3 1
   5    2   25 1
   6    2   26 1
   7    3    4 1
   8    3   18 1
   9    3   27 1
  10    4    7 1
  11    4   28 1
  12    4   29 1
  13    6   30 1
  14    7    8 2
  15    7   11 1
  16    8    9 1
  17    9   10 ar
  18    9   12 ar
  19   10   11 1
  20   10   15 ar
  21   11   31 1
  22   12   13 ar
  23   12   32 1
  24   13   14 ar
  25   13   17 1
  26   14   15 ar
  27   14   33 1
  28   15   16 1
  29   18   19 ar
  30   18   23 ar
  31   19   20 ar
  32   19   34 1
  33   20   21 ar
  34   20   35 1
  35   21   22 ar
  36   21   24 1
  37   22   23 ar
  38   22   36 1
  39   23   37 1

#	End of record

