#	Name: ASD01412014
#	Creating user name:	WinNT
#	Creation time:	15. 06. 2019 19:19

#	Modifying user name:	WinNT
#	Modification time:	15. 06. 2019 19:19

#	Program:	/corina/corina34_cracker 3.40 0067  02.08.2006

@<TRIPOS>MOLECULE
ASD01412014
  82   86    0    0    0
SMALL
NO_CHARGES


@<TRIPOS>ATOM
   1 C1            -1.1717     3.2494    -0.6285 C.ar    
   2 C2            -0.9740     1.9109    -1.0241 C.ar    
   3 C3            -2.0422     1.0032    -0.9808 C.ar    
   4 C4            -3.2687     1.4145    -0.5576 C.ar    
   5 C5            -3.4748     2.7444    -0.1625 C.ar    
   6 C6            -2.4230     3.6578    -0.1938 C.ar    
   7 N7             0.0356     3.9015    -0.7737 N.pl3   
   8 C8             0.9676     3.0076    -1.2452 C.2     
   9 C9             0.3840     1.7931    -1.4064 C.2     
  10 C10            1.0611     0.5418    -1.9033 C.3     
  11 C11            0.9739    -0.5456    -0.8305 C.3     
  12 C12            1.6612    -1.8160    -1.3349 C.3     
  13 C13            0.9666    -2.3000    -2.6094 C.3     
  14 C14            1.0538    -1.2126    -3.6821 C.3     
  15 C15            0.3664     0.0578    -3.1777 C.3     
  16 C16           -4.8099     3.1768     0.2932 C.2     
  17 O17           -4.9916     4.3291     0.6363 O.2     
  18 N18           -5.8281     2.2945     0.3291 N.am    
  19 C19           -7.1537     2.7238     0.7816 C.3     
  20 C20           -8.1055     1.5567     0.7272 C.2     
  21 C21           -7.0599     3.2388     2.2193 C.3     
  22 C22           -7.6657     3.8422    -0.1283 C.3     
  23 C23           -8.8161    -0.4857    -0.2552 C.ar    
  24 O24           -8.9760     1.4445     1.5641 O.2     
  25 C25           -9.1922    -1.0741     0.9486 C.ar    
  26 C26          -10.0121    -2.1793     0.9501 C.ar    
  27 C27          -10.4684    -2.7114    -0.2620 C.ar    
  28 C28          -10.0878    -2.1158    -1.4706 C.ar    
  29 C29           -9.2672    -1.0112    -1.4624 C.ar    
  30 C30          -11.3437    -3.8916    -0.2656 C.2     
  31 C31          -12.3918    -3.9580     0.5844 C.2     
  32 N32           -7.9893     0.6375    -0.2516 N.am    
  33 C33            0.2833     5.3142    -0.4752 C.3     
  34 C34            2.3840     3.3207    -1.5322 C.ar    
  35 C35            2.7174     4.4832    -2.2279 C.ar    
  36 C36            4.0423     4.7699    -2.4922 C.ar    
  37 C37            5.0378     3.9062    -2.0683 C.ar    
  38 C38            4.7127     2.7520    -1.3780 C.ar    
  39 C39            3.3934     2.4573    -1.1032 C.ar    
  40 C40            6.4816     4.2243    -2.3602 C.3     
  41 Cl41           4.4600     6.2153    -3.3581 Cl      
  42 C42          -12.7905    -2.8067     1.3095 C.2     
  43 O43          -12.2164    -1.7486     1.1343 O.2     
  44 O44          -13.8066    -2.8847     2.1938 O.3     
  45 H45           -1.8916    -0.0224    -1.2837 H       
  46 H46           -4.0886     0.7123    -0.5261 H       
  47 H47           -2.5840     4.6813     0.1113 H       
  48 H48            2.1078     0.7562    -2.1190 H       
  49 H49            1.4687    -0.2008     0.0774 H       
  50 H50           -0.0728    -0.7601    -0.6147 H       
  51 H51            2.7079    -1.6016    -1.5507 H       
  52 H52            1.5991    -2.5907    -0.5707 H       
  53 H53            1.4563    -3.2051    -2.9687 H       
  54 H54           -0.0801    -2.5145    -2.3936 H       
  55 H55            2.1005    -0.9982    -3.8979 H       
  56 H56            0.5589    -1.5574    -4.5901 H       
  57 H57           -0.6803    -0.1567    -2.9619 H       
  58 H58            0.4286     0.8325    -3.9419 H       
  59 H59           -5.6832     1.3753     0.0555 H       
  60 H60           -6.3715     4.0830     2.2586 H       
  61 H61           -8.0462     3.5582     2.5559 H       
  62 H62           -6.6951     2.4420     2.8675 H       
  63 H63           -7.7326     3.4754    -1.1526 H       
  64 H64           -8.6520     4.1617     0.2083 H       
  65 H65           -6.9773     4.6864    -0.0890 H       
  66 H66           -8.8397    -0.6630     1.8830 H       
  67 H67          -10.3029    -2.6357     1.8847 H       
  68 H68          -10.4372    -2.5230    -2.4079 H       
  69 H69           -8.9734    -0.5508    -2.3942 H       
  70 H70          -11.1493    -4.7061    -0.9477 H       
  71 H71          -12.9259    -4.8880     0.7115 H       
  72 H72           -7.3305     0.7570    -0.9535 H       
  73 H73            0.5950     5.4168     0.5642 H       
  74 H74            1.0695     5.6913    -1.1293 H       
  75 H75           -0.6304     5.8857    -0.6386 H       
  76 H76            1.9413     5.1572    -2.5592 H       
  77 H77            5.4940     2.0823    -1.0500 H       
  78 H78            3.1414     1.5559    -0.5643 H       
  79 H79            6.8964     4.8138    -1.5425 H       
  80 H80            7.0448     3.2966    -2.4614 H       
  81 H81            6.5480     4.7927    -3.2880 H       
  82 H82          -14.0056    -2.0496     2.6390 H       
@<TRIPOS>BOND
   1    1    2 ar
   2    1    7 1
   3    1    6 ar
   4    2    3 ar
   5    2    9 1
   6    3    4 ar
   7    3   45 1
   8    4    5 ar
   9    4   46 1
  10    5    6 ar
  11    5   16 1
  12    6   47 1
  13    7    8 1
  14    7   33 1
  15    8    9 2
  16    8   34 1
  17    9   10 1
  18   10   11 1
  19   10   15 1
  20   10   48 1
  21   11   12 1
  22   11   49 1
  23   11   50 1
  24   12   13 1
  25   12   51 1
  26   12   52 1
  27   13   14 1
  28   13   53 1
  29   13   54 1
  30   14   15 1
  31   14   55 1
  32   14   56 1
  33   15   57 1
  34   15   58 1
  35   16   17 2
  36   16   18 am
  37   18   19 1
  38   18   59 1
  39   19   20 1
  40   19   21 1
  41   19   22 1
  42   20   24 2
  43   20   32 am
  44   21   60 1
  45   21   61 1
  46   21   62 1
  47   22   63 1
  48   22   64 1
  49   22   65 1
  50   23   25 ar
  51   23   29 ar
  52   23   32 1
  53   25   26 ar
  54   25   66 1
  55   26   27 ar
  56   26   67 1
  57   27   28 ar
  58   27   30 1
  59   28   29 ar
  60   28   68 1
  61   29   69 1
  62   30   31 2
  63   30   70 1
  64   31   42 1
  65   31   71 1
  66   32   72 1
  67   33   73 1
  68   33   74 1
  69   33   75 1
  70   34   35 ar
  71   34   39 ar
  72   35   36 ar
  73   35   76 1
  74   36   37 ar
  75   36   41 1
  76   37   38 ar
  77   37   40 1
  78   38   39 ar
  79   38   77 1
  80   39   78 1
  81   40   79 1
  82   40   80 1
  83   40   81 1
  84   42   43 2
  85   42   44 1
  86   44   82 1

#	End of record

