#	Name: ASD01410112
#	Creating user name:	WinNT
#	Creation time:	15. 06. 2019 19:16

#	Modifying user name:	WinNT
#	Modification time:	15. 06. 2019 19:16

#	Program:	/corina/corina34_cracker 3.40 0067  02.08.2006

@<TRIPOS>MOLECULE
ASD01410112
  77   81    0    0    0
SMALL
NO_CHARGES


@<TRIPOS>ATOM
   1 C1            -0.0169     1.3986     0.0097 C.ar    
   2 C2             0.0021    -0.0041     0.0020 C.ar    
   3 C3            -1.1621    -0.7093     0.0093 C.ar    
   4 C4            -2.3913    -0.0345     0.0247 C.ar    
   5 C5            -2.4204     1.3755     0.0325 C.ar    
   6 C6            -1.2309     2.0852     0.0308 C.ar    
   7 C7            -3.7373    -0.4720     0.0356 C.2     
   8 C8            -4.5320     0.6288     0.0494 C.2     
   9 N9            -3.7469     1.7572     0.0477 N.pl3   
  10 C10           -6.0100     0.6158     0.0632 C.ar    
  11 C11           -4.2050    -1.9045     0.0321 C.3     
  12 C12           -3.6897    -2.6062    -1.2261 C.3     
  13 C13           -4.1647    -4.0606    -1.2297 C.3     
  14 C14           -3.6254    -4.7763     0.0105 C.3     
  15 C15           -4.1407    -4.0746     1.2687 C.3     
  16 C16           -3.6658    -2.6202     1.2722 C.3     
  17 C17            1.2510     2.1499     0.0017 C.2     
  18 O18            2.4256     1.4892    -0.0131 O.3     
  19 C19           -4.2373     3.1376     0.0595 C.3     
  20 C20           -4.3918     3.6036     1.4843 C.2     
  21 N21           -4.8330     4.8509     1.7413 N.am    
  22 O22            1.2374     3.3650     0.0083 O.2     
  23 O23           -4.1192     2.8562     2.3997 O.2     
  24 C24           -4.9888     5.3196     3.1250 C.3     
  25 C25           -6.4144     5.8496     3.3085 C.3     
  26 C26           -6.6984     6.9158     2.2480 C.3     
  27 C27           -6.5903     6.2929     0.8543 C.3     
  28 C28           -5.1614     5.7699     0.6429 C.3     
  29 N29           -8.0531     7.4499     2.4417 N.3     
  30 C30           -8.3188     8.5594     1.5162 C.3     
  31 C31           -9.0618     6.3916     2.2981 C.3     
  32 C32           -6.7093     1.4590     0.9288 C.ar    
  33 C33           -8.0874     1.4439     0.9387 C.ar    
  34 C34           -8.7805     0.5915     0.0891 C.ar    
  35 C35           -8.0886    -0.2487    -0.7735 C.ar    
  36 C36           -6.7105    -0.2355    -0.7935 C.ar    
  37 O37          -10.1389     0.5792     0.1021 O.3     
  38 C38          -10.7882    -0.3216    -0.7974 C.3     
  39 H39            0.9465    -0.5278    -0.0102 H       
  40 H40           -1.1391    -1.7890     0.0030 H       
  41 H41           -1.2434     3.1651     0.0368 H       
  42 H42           -5.2947    -1.9309     0.0424 H       
  43 H43           -4.0739    -2.0964    -2.1096 H       
  44 H44           -2.6001    -2.5798    -1.2364 H       
  45 H45           -5.2543    -4.0870    -1.2194 H       
  46 H46           -3.7976    -4.5605    -2.1260 H       
  47 H47           -3.9638    -5.8124     0.0079 H       
  48 H48           -2.5358    -4.7498     0.0002 H       
  49 H49           -5.2304    -4.1010     1.2789 H       
  50 H50           -3.7566    -4.5844     2.1522 H       
  51 H51           -2.5762    -2.5937     1.2620 H       
  52 H52           -4.0329    -2.1203     2.1686 H       
  53 H53            3.2306     2.0250    -0.0179 H       
  54 H54           -3.5252     3.7806    -0.4578 H       
  55 H55           -5.2024     3.1847    -0.4448 H       
  56 H56           -4.8152     4.4921     3.8129 H       
  57 H57           -4.2738     6.1182     3.3230 H       
  58 H58           -7.1242     5.0296     3.1993 H       
  59 H59           -6.5144     6.2882     4.3014 H       
  60 H60           -5.9729     7.7237     2.3420 H       
  61 H61           -7.2985     5.4688     0.7682 H       
  62 H62           -6.8157     7.0471     0.1003 H       
  63 H63           -4.4630     6.6067     0.6383 H       
  64 H64           -5.1038     5.2379    -0.3067 H       
  65 H65           -8.2259     8.2061     0.4893 H       
  66 H66           -9.3283     8.9361     1.6809 H       
  67 H67           -7.5994     9.3592     1.6918 H       
  68 H68           -8.8824     5.6154     3.0421 H       
  69 H69          -10.0555     6.8143     2.4463 H       
  70 H70           -8.9958     5.9598     1.2995 H       
  71 H71           -6.1710     2.1219     1.5901 H       
  72 H72           -8.6291     2.0956     1.6083 H       
  73 H73           -8.6311    -0.9104    -1.4325 H       
  74 H74           -6.1731    -0.8889    -1.4648 H       
  75 H75          -10.4839    -1.3434    -0.5709 H       
  76 H76          -11.8686    -0.2309    -0.6854 H       
  77 H77          -10.5073    -0.0774    -1.8219 H       
@<TRIPOS>BOND
   1    1    2 ar
   2    1   17 1
   3    1    6 ar
   4    2    3 ar
   5    2   39 1
   6    3    4 ar
   7    3   40 1
   8    4    5 ar
   9    4    7 1
  10    5    6 ar
  11    5    9 1
  12    6   41 1
  13    7    8 2
  14    7   11 1
  15    8    9 1
  16    8   10 1
  17    9   19 1
  18   10   32 ar
  19   10   36 ar
  20   11   12 1
  21   11   16 1
  22   11   42 1
  23   12   13 1
  24   12   43 1
  25   12   44 1
  26   13   14 1
  27   13   45 1
  28   13   46 1
  29   14   15 1
  30   14   47 1
  31   14   48 1
  32   15   16 1
  33   15   49 1
  34   15   50 1
  35   16   51 1
  36   16   52 1
  37   17   18 1
  38   17   22 2
  39   18   53 1
  40   19   20 1
  41   19   54 1
  42   19   55 1
  43   20   21 am
  44   20   23 2
  45   21   24 1
  46   21   28 1
  47   24   25 1
  48   24   56 1
  49   24   57 1
  50   25   26 1
  51   25   58 1
  52   25   59 1
  53   26   27 1
  54   26   29 1
  55   26   60 1
  56   27   28 1
  57   27   61 1
  58   27   62 1
  59   28   63 1
  60   28   64 1
  61   29   30 1
  62   29   31 1
  63   30   65 1
  64   30   66 1
  65   30   67 1
  66   31   68 1
  67   31   69 1
  68   31   70 1
  69   32   33 ar
  70   32   71 1
  71   33   34 ar
  72   33   72 1
  73   34   35 ar
  74   34   37 1
  75   35   36 ar
  76   35   73 1
  77   36   74 1
  78   37   38 1
  79   38   75 1
  80   38   76 1
  81   38   77 1

#	End of record

