#	Name: ASD04122001
#	Creating user name:	WinNT
#	Creation time:	15. 06. 2019 20:48

#	Modifying user name:	WinNT
#	Modification time:	15. 06. 2019 20:48

#	Program:	/corina/corina34_cracker 3.40 0067  02.08.2006

@<TRIPOS>MOLECULE
ASD04122001
  34   37    0    0    0
SMALL
NO_CHARGES


@<TRIPOS>ATOM
   1 C1            -0.0654     0.9925    -0.0606 C.ar    
   2 C2            -0.2052    -0.3919    -0.2017 C.ar    
   3 N3            -1.4231    -1.0731    -0.3126 N.pl3   
   4 C4            -2.6020    -0.7592    -0.9200 C.2     
   5 C5            -3.0799     0.4392    -1.5035 C.2     
   6 C6            -2.3875     1.7220    -1.4290 C.3     
   7 S7            -1.4876     2.0040     0.0968 S.3     
   8 C8            -1.5455    -2.3316     0.2264 C.2     
   9 C9            -2.7459    -2.8489    -0.1130 C.2     
  10 C10           -3.4298    -1.8848    -0.8449 C.2     
  11 C11            1.1979     1.5675    -0.0162 C.ar    
  12 C12            2.3292     0.7801    -0.0836 C.ar    
  13 C13            2.2008    -0.5927    -0.1965 C.ar    
  14 C14            0.9523    -1.1715    -0.2551 C.ar    
  15 O15           -4.1340     0.3969    -2.1053 O.2     
  16 C16           -1.4156     1.8058    -2.5777 C.ar    
  17 C17           -0.6328     0.7135    -2.9019 C.ar    
  18 C18            0.2587     0.7903    -3.9555 C.ar    
  19 C19            0.3671     1.9593    -4.6853 C.ar    
  20 C20           -0.4163     3.0513    -4.3617 C.ar    
  21 C21           -1.3109     2.9731    -3.3108 C.ar    
  22 H22           -3.1230     2.5177    -1.5470 H       
  23 H23           -0.7983    -2.8292     0.8269 H       
  24 H24           -3.1092    -3.8343     0.1386 H       
  25 H25           -4.4155    -1.9857    -1.2747 H       
  26 H26            1.2957     2.6395     0.0715 H       
  27 H27            3.3091     1.2329    -0.0486 H       
  28 H28            3.0835    -1.2135    -0.2394 H       
  29 H29            0.8671    -2.2445    -0.3436 H       
  30 H30           -0.7175    -0.1998    -2.3317 H       
  31 H31            0.8708    -0.0628    -4.2083 H       
  32 H32            1.0642     2.0196    -5.5080 H       
  33 H33           -0.3313     3.9648    -4.9317 H       
  34 H34           -1.9230     3.8262    -3.0580 H       
@<TRIPOS>BOND
   1    1    2 ar
   2    1   11 ar
   3    1    7 1
   4    2    3 1
   5    2   14 ar
   6    3    8 1
   7    3    4 1
   8    4    5 1
   9    4   10 2
  10    5    6 1
  11    5   15 2
  12    6    7 1
  13    6   16 1
  14    6   22 1
  15    8    9 2
  16    8   23 1
  17    9   10 1
  18    9   24 1
  19   10   25 1
  20   11   12 ar
  21   11   26 1
  22   12   13 ar
  23   12   27 1
  24   13   14 ar
  25   13   28 1
  26   14   29 1
  27   16   17 ar
  28   16   21 ar
  29   17   18 ar
  30   17   30 1
  31   18   19 ar
  32   18   31 1
  33   19   20 ar
  34   19   32 1
  35   20   21 ar
  36   20   33 1
  37   21   34 1

#	End of record

