#	Name: ASD05170055
#	Creating user name:	WinNT
#	Creation time:	15. 06. 2019 20:57

#	Modifying user name:	WinNT
#	Modification time:	15. 06. 2019 20:57

#	Program:	/corina/corina34_cracker 3.40 0067  02.08.2006

@<TRIPOS>MOLECULE
ASD05170055
  44   47    0    0    0
SMALL
NO_CHARGES


@<TRIPOS>ATOM
   1 C1            -0.2252     1.4570    -1.1227 C.ar    
   2 C2            -0.2364     0.0834    -1.2781 C.ar    
   3 C3             0.9382    -0.6377    -1.1510 C.ar    
   4 C4             2.1243     0.0137    -0.8692 C.ar    
   5 C5             2.1403     1.3865    -0.7136 C.ar    
   6 C6             0.9646     2.1119    -0.8399 C.ar    
   7 O7             0.9785     3.4622    -0.6871 O.3     
   8 C8             2.2391     4.0694    -0.3971 C.3     
   9 C9             2.0599     5.5597    -0.2628 C.2     
  10 C10            0.8527     6.2597    -0.3922 C.2     
  11 N11            3.0059     6.4304     0.0015 N.2     
  12 C12            1.1800     7.5708    -0.1933 C.2     
  13 C13            0.3632     8.7939    -0.1945 C.2     
  14 N14            2.5337     7.6139     0.0589 N.pl3   
  15 C15            3.2111     8.8823     0.3537 C.3     
  16 C16            2.4867    10.0194    -0.3654 C.3     
  17 N17            1.0390     9.9683    -0.1750 N.am    
  18 O18           -0.8524     8.7535    -0.2125 O.2     
  19 C19            0.3351    11.1590     0.0374 C.ar    
  20 C20           -0.9493    12.5832     1.4774 C.ar    
  21 C21           -0.2554    11.4073     1.2696 C.ar    
  22 C22            0.2308    12.0965    -0.9817 C.ar    
  23 C23           -0.4640    13.2711    -0.7698 C.ar    
  24 C24           -1.0561    13.5145     0.4582 C.ar    
  25 F25           -1.7353    14.6642     0.6634 F       
  26 C26            3.1881     9.1352     1.8624 C.3     
  27 Cl27          -1.7244    -0.7376    -1.6320 Cl      
  28 H28           -1.1409     2.0201    -1.2259 H       
  29 H29            0.9279    -1.7108    -1.2719 H       
  30 H30            3.0396    -0.5511    -0.7702 H       
  31 H31            3.0675     1.8945    -0.4930 H       
  32 H32            2.6310     3.6651     0.5362 H       
  33 H33            2.9385     3.8590    -1.2062 H       
  34 H34           -0.1245     5.8511    -0.6034 H       
  35 H35            4.2437     8.8323     0.0080 H       
  36 H36            2.8586    10.9706     0.0153 H       
  37 H37            2.7061     9.9587    -1.4314 H       
  38 H38           -1.4089    12.7765     2.4353 H       
  39 H39           -0.1723    10.6812     2.0648 H       
  40 H40            0.6931    11.9074    -1.9393 H       
  41 H41           -0.5453    14.0005    -1.5621 H       
  42 H42            3.7015     8.3217     2.3751 H       
  43 H43            3.6913    10.0771     2.0807 H       
  44 H44            2.1551     9.1868     2.2065 H       
@<TRIPOS>BOND
   1    1    2 ar
   2    1    6 ar
   3    1   28 1
   4    2    3 ar
   5    2   27 1
   6    3    4 ar
   7    3   29 1
   8    4    5 ar
   9    4   30 1
  10    5    6 ar
  11    5   31 1
  12    6    7 1
  13    7    8 1
  14    8    9 1
  15    8   32 1
  16    8   33 1
  17    9   11 2
  18    9   10 1
  19   10   12 2
  20   10   34 1
  21   11   14 1
  22   12   14 1
  23   12   13 1
  24   13   17 am
  25   13   18 2
  26   14   15 1
  27   15   16 1
  28   15   26 1
  29   15   35 1
  30   16   17 1
  31   16   36 1
  32   16   37 1
  33   17   19 1
  34   19   22 ar
  35   19   21 ar
  36   20   21 ar
  37   20   24 ar
  38   20   38 1
  39   21   39 1
  40   22   23 ar
  41   22   40 1
  42   23   24 ar
  43   23   41 1
  44   24   25 1
  45   26   42 1
  46   26   43 1
  47   26   44 1

#	End of record

