#	Name: ASD02038822
#	Creating user name:	WinNT
#	Creation time:	15. 06. 2019 20:17

#	Modifying user name:	WinNT
#	Modification time:	15. 06. 2019 20:17

#	Program:	/corina/corina34_cracker 3.40 0067  02.08.2006

@<TRIPOS>MOLECULE
ASD02038822
  56   59    0    0    0
SMALL
NO_CHARGES


@<TRIPOS>ATOM
   1 C1            -1.3396    -1.1388     0.3181 C.2     
   2 C2            -0.2182    -0.1771     0.2542 C.2     
   3 N3             1.0490    -0.6252     0.1547 N.am    
   4 C4             1.3236    -2.0633     0.2065 C.3     
   5 C5             1.4411    -2.6031    -1.1956 C.ar    
   6 C6             2.1519     0.3258    -0.0052 C.3     
   7 O7            -0.4392     1.0176     0.2913 O.2     
   8 N8            -1.2346    -2.4800     0.2986 N.2     
   9 C9            -2.4474    -2.9658     0.3735 C.2     
  10 N10           -3.2995    -1.9261     0.4391 N.pl3   
  11 N11           -2.6157    -0.8345     0.4099 N.2     
  12 C12            2.6864    -2.7557    -1.7744 C.ar    
  13 C13            1.9073     1.1902    -1.2459 C.3     
  14 C14            3.0231     2.2320    -1.3605 C.3     
  15 O15            3.0610     3.0205    -0.1692 O.3     
  16 C16            3.3333     2.2721     1.0173 C.3     
  17 C17            2.2300     1.2318     1.2274 C.3     
  18 C18            0.3031    -2.9504    -1.8996 C.ar    
  19 C19            0.4076    -3.4460    -3.1864 C.ar    
  20 C20            1.6498    -3.5952    -3.7715 C.ar    
  21 C21            2.7938    -3.2526    -3.0650 C.ar    
  22 O22            4.0172    -3.3980    -3.6387 O.3     
  23 C23            4.0571    -3.9814    -4.9426 C.3     
  24 C24            5.3515    -3.5689    -5.6652 C.3     
  25 C25            6.1207    -4.8711    -5.9690 C.3     
  26 C26            5.0250    -5.9658    -5.9799 C.3     
  27 C27            4.0850    -5.5199    -4.8325 C.3     
  28 C28           -4.7585    -2.0199     0.5339 C.3     
  29 H29            2.2573    -2.2359     0.7417 H       
  30 H30            0.5091    -2.5703     0.7239 H       
  31 H31            3.0892    -0.2187    -0.1191 H       
  32 H32           -2.7160    -4.0119     0.3809 H       
  33 H33            3.5753    -2.4880    -1.2226 H       
  34 H34            1.9054     0.5592    -2.1348 H       
  35 H35            0.9456     1.6950    -1.1544 H       
  36 H36            3.9799     1.7269    -1.4926 H       
  37 H37            2.8312     2.8775    -2.2176 H       
  38 H38            4.2942     1.7675     0.9163 H       
  39 H39            3.3649     2.9464     1.8731 H       
  40 H40            1.2748     1.7375     1.3689 H       
  41 H41            2.4588     0.6307     2.1074 H       
  42 H42           -0.6691    -2.8349    -1.4436 H       
  43 H43           -0.4829    -3.7170    -3.7341 H       
  44 H44            1.7309    -3.9823    -4.7765 H       
  45 H45            3.1893    -3.6633    -5.5203 H       
  46 H46            5.1118    -3.0514    -6.5941 H       
  47 H47            5.9492    -2.9237    -5.0213 H       
  48 H48            6.6071    -4.8085    -6.9425 H       
  49 H49            6.8535    -5.0725    -5.1876 H       
  50 H50            4.4954    -5.9728    -6.9325 H       
  51 H51            5.4550    -6.9448    -5.7685 H       
  52 H52            4.4889    -5.8260    -3.8675 H       
  53 H53            3.0857    -5.9308    -4.9765 H       
  54 H54           -5.0531    -2.0528     1.5828 H       
  55 H55           -5.2102    -1.1502     0.0567 H       
  56 H56           -5.0976    -2.9264     0.0326 H       
@<TRIPOS>BOND
   1    1    2 1
   2    1    8 1
   3    1   11 2
   4    2    3 am
   5    2    7 2
   6    3    4 1
   7    3    6 1
   8    4    5 1
   9    4   29 1
  10    4   30 1
  11    5   12 ar
  12    5   18 ar
  13    6   13 1
  14    6   17 1
  15    6   31 1
  16    8    9 2
  17    9   10 1
  18    9   32 1
  19   10   11 1
  20   10   28 1
  21   12   21 ar
  22   12   33 1
  23   13   14 1
  24   13   34 1
  25   13   35 1
  26   14   15 1
  27   14   36 1
  28   14   37 1
  29   15   16 1
  30   16   17 1
  31   16   38 1
  32   16   39 1
  33   17   40 1
  34   17   41 1
  35   18   19 ar
  36   18   42 1
  37   19   20 ar
  38   19   43 1
  39   20   21 ar
  40   20   44 1
  41   21   22 1
  42   22   23 1
  43   23   24 1
  44   23   27 1
  45   23   45 1
  46   24   25 1
  47   24   46 1
  48   24   47 1
  49   25   26 1
  50   25   48 1
  51   25   49 1
  52   26   27 1
  53   26   50 1
  54   26   51 1
  55   27   52 1
  56   27   53 1
  57   28   54 1
  58   28   55 1
  59   28   56 1

#	End of record

