#	Name: ASD07930626
#	Creating user name:	WinNT
#	Creation time:	15. 06. 2019 21:12

#	Modifying user name:	WinNT
#	Modification time:	15. 06. 2019 21:12

#	Program:	/corina/corina34_cracker 3.40 0067  02.08.2006

@<TRIPOS>MOLECULE
ASD07930626
  48   50    0    0    0
SMALL
NO_CHARGES


@<TRIPOS>ATOM
   1 C1             1.3697     0.7528    -1.5467 C.3     
   2 N2             2.3134    -2.0772    -1.4376 N.2     
   3 N3             0.0354    -2.5821    -1.3053 N.pl3   
   4 C4            -0.8996    -2.7428    -0.1869 C.3     
   5 C5            -1.5450    -1.3871     0.1318 C.3     
   6 S6            -0.2177    -0.1887     0.4728 S.o2    
   7 N7             0.8030    -0.3915    -0.8286 N.am    
   8 C8             1.0894    -1.6979    -1.1988 C.2     
   9 C9            -0.1434    -3.2503     1.0425 C.3     
  10 C10           -1.9705    -3.7335    -0.5646 C.ar    
  11 C11           -1.6887    -4.7473    -1.4615 C.ar    
  12 C12           -2.6782    -5.6612    -1.8087 C.ar    
  13 C13           -3.9454    -5.5526    -1.2536 C.ar    
  14 C14           -4.2220    -4.5376    -0.3577 C.ar    
  15 C15           -3.2350    -3.6317    -0.0088 C.ar    
  16 O16           -0.6964     1.1434     0.3474 O.2     
  17 O17            0.5513    -0.5941     1.5969 O.2     
  18 N18           -2.3961    -6.6890    -2.7172 N.am    
  19 C19           -3.3928    -7.2516    -3.4290 C.2     
  20 O20           -4.5198    -6.8025    -3.3564 O.2     
  21 C21           -3.1146    -8.4172    -4.2997 C.ar    
  22 N22           -1.8818    -8.9032    -4.3748 N.ar    
  23 F23           -3.5085    -2.6407     0.8677 F       
  24 C24           -1.5926    -9.9364    -5.1356 C.ar    
  25 C25           -3.8746   -10.0878    -5.8388 C.ar    
  26 C26           -4.1504    -8.9979    -5.0286 C.ar    
  27 C27           -2.5720   -10.5593    -5.8923 C.ar    
  28 C28           -2.2259   -11.7416    -6.7603 C.3     
  29 F29           -0.8614   -12.0257    -6.6387 F       
  30 F30           -2.9717   -12.8531    -6.3534 F       
  31 F31           -2.5231   -11.4435    -8.0944 F       
  32 F32           -0.4540    -4.8499    -2.0003 F       
  33 H33            2.3186     1.0344    -1.0904 H       
  34 H34            1.5342     0.4819    -2.5897 H       
  35 H35            0.6777     1.5934    -1.4945 H       
  36 H36            3.0423    -1.4422    -1.3575 H       
  37 H37           -0.0845    -3.0995    -2.1170 H       
  38 H38           -2.1336    -1.0506    -0.7216 H       
  39 H39           -2.1875    -1.4827     1.0072 H       
  40 H40            0.6914    -2.5829     1.2566 H       
  41 H41           -0.8173    -3.2755     1.8988 H       
  42 H42            0.2345    -4.2540     0.8478 H       
  43 H43           -4.7153    -6.2609    -1.5220 H       
  44 H44           -5.2084    -4.4533     0.0741 H       
  45 H45           -1.4835    -6.9960    -2.8342 H       
  46 H46           -0.5778   -10.3041    -5.1713 H       
  47 H47           -4.6566   -10.5590    -6.4158 H       
  48 H48           -5.1539    -8.6041    -4.9631 H       
@<TRIPOS>BOND
   1    1    7 1
   2    1   33 1
   3    1   34 1
   4    1   35 1
   5    2    8 2
   6    2   36 1
   7    3    4 1
   8    3    8 1
   9    3   37 1
  10    4    5 1
  11    4    9 1
  12    4   10 1
  13    5    6 1
  14    5   38 1
  15    5   39 1
  16    6    7 am
  17    6   16 2
  18    6   17 2
  19    7    8 1
  20    9   40 1
  21    9   41 1
  22    9   42 1
  23   10   11 ar
  24   10   15 ar
  25   11   12 ar
  26   11   32 1
  27   12   13 ar
  28   12   18 1
  29   13   14 ar
  30   13   43 1
  31   14   15 ar
  32   14   44 1
  33   15   23 1
  34   18   19 am
  35   18   45 1
  36   19   20 2
  37   19   21 1
  38   21   22 ar
  39   21   26 ar
  40   22   24 ar
  41   24   27 ar
  42   24   46 1
  43   25   26 ar
  44   25   27 ar
  45   25   47 1
  46   26   48 1
  47   27   28 1
  48   28   29 1
  49   28   30 1
  50   28   31 1

#	End of record

