#	Name: ASD04840069
#	Creating user name:	WinNT
#	Creation time:	15. 06. 2019 20:52

#	Modifying user name:	WinNT
#	Modification time:	15. 06. 2019 20:52

#	Program:	/corina/corina34_cracker 3.40 0067  02.08.2006

@<TRIPOS>MOLECULE
ASD04840069
  53   56    0    0    0
SMALL
NO_CHARGES


@<TRIPOS>ATOM
   1 C1            -0.3731     1.7249    -0.5477 C.ar    
   2 C2            -0.2944     0.3233    -0.6057 C.ar    
   3 C3             0.9156    -0.2768    -0.7756 C.ar    
   4 C4             2.0807     0.4781    -0.8928 C.ar    
   5 C5             2.0430     1.8379    -0.8409 C.ar    
   6 C6             0.8122     2.4930    -0.6675 C.ar    
   7 C7             0.7334     3.8951    -0.6101 C.ar    
   8 C8            -0.4763     4.4951    -0.4407 C.ar    
   9 C9            -1.6418     3.7398    -0.3229 C.ar    
  10 C10           -1.6047     2.3806    -0.3791 C.ar    
  11 C11           -2.8771     1.5824    -0.2559 C.3     
  12 O12           -3.9836     2.4720    -0.0940 O.3     
  13 C13           -5.2120     1.9103     0.0322 C.ar    
  14 C14           -6.3453     2.7224     0.1946 C.ar    
  15 C15           -7.6092     2.1364     0.3241 C.ar    
  16 C16           -7.7417     0.7787     0.2929 C.ar    
  17 C17           -6.6180    -0.0360     0.1315 C.ar    
  18 C18           -5.3543     0.5340    -0.0044 C.ar    
  19 C19           -6.2044     4.1874     0.2290 C.2     
  20 O20           -7.2936     4.9658     0.3850 O.3     
  21 O21           -5.1058     4.6950     0.1167 O.2     
  22 C22           -6.7717    -1.5095     0.0993 C.ar    
  23 C23           -8.0367    -2.0830     0.2299 C.ar    
  24 C24           -8.1772    -3.4534     0.1991 C.ar    
  25 C25           -7.0592    -4.2647     0.0385 C.ar    
  26 C26           -5.7970    -3.6953    -0.0914 C.ar    
  27 C27           -5.6524    -2.3252    -0.0675 C.ar    
  28 N28           -7.2038    -5.6513     0.0082 N.am    
  29 S29           -7.8181    -6.3904    -1.3404 S.o2    
  30 C30           -6.6133    -6.0237    -2.6460 C.3     
  31 O31           -7.8004    -7.7747    -1.0201 O.2     
  32 O32           -9.0416    -5.7108    -1.5859 O.2     
  33 H33           -1.1891    -0.2748    -0.5156 H       
  34 H34            0.9733    -1.3544    -0.8198 H       
  35 H35            3.0281    -0.0230    -1.0265 H       
  36 H36            2.9544     2.4101    -0.9324 H       
  37 H37            1.6282     4.4932    -0.6996 H       
  38 H38           -0.5341     5.5726    -0.3966 H       
  39 H39           -2.5891     4.2410    -0.1891 H       
  40 H40           -3.0198     0.9850    -1.1564 H       
  41 H41           -2.8105     0.9239     0.6102 H       
  42 H42           -8.4819     2.7601     0.4495 H       
  43 H43           -8.7197     0.3316     0.3937 H       
  44 H44           -4.4871    -0.0966    -0.1335 H       
  45 H45           -7.1512     5.9221     0.4015 H       
  46 H46           -8.9051    -1.4533     0.3553 H       
  47 H47           -9.1563    -3.8978     0.3002 H       
  48 H48           -4.9301    -4.3274    -0.2153 H       
  49 H49           -4.6726    -1.8833    -0.1729 H       
  50 H50           -6.9446    -6.1829     0.7770 H       
  51 H51           -5.6228    -6.3495    -2.3283 H       
  52 H52           -6.8939    -6.5508    -3.5579 H       
  53 H53           -6.5991    -4.9506    -2.8363 H       
@<TRIPOS>BOND
   1    1    2 ar
   2    1    6 ar
   3    1   10 ar
   4    2    3 ar
   5    2   33 1
   6    3    4 ar
   7    3   34 1
   8    4    5 ar
   9    4   35 1
  10    5    6 ar
  11    5   36 1
  12    6    7 ar
  13    7    8 ar
  14    7   37 1
  15    8    9 ar
  16    8   38 1
  17    9   10 ar
  18    9   39 1
  19   10   11 1
  20   11   12 1
  21   11   40 1
  22   11   41 1
  23   12   13 1
  24   13   14 ar
  25   13   18 ar
  26   14   15 ar
  27   14   19 1
  28   15   16 ar
  29   15   42 1
  30   16   17 ar
  31   16   43 1
  32   17   18 ar
  33   17   22 1
  34   18   44 1
  35   19   20 1
  36   19   21 2
  37   20   45 1
  38   22   23 ar
  39   22   27 ar
  40   23   24 ar
  41   23   46 1
  42   24   25 ar
  43   24   47 1
  44   25   26 ar
  45   25   28 1
  46   26   27 ar
  47   26   48 1
  48   27   49 1
  49   28   29 am
  50   28   50 1
  51   29   30 1
  52   29   31 2
  53   29   32 2
  54   30   51 1
  55   30   52 1
  56   30   53 1

#	End of record

