#	Name: ASD01913478
#	Creating user name:	WinNT
#	Creation time:	15. 06. 2019 20:01

#	Modifying user name:	WinNT
#	Modification time:	15. 06. 2019 20:01

#	Program:	/corina/corina34_cracker 3.40 0067  02.08.2006

@<TRIPOS>MOLECULE
ASD01913478
  33   35    0    0    0
SMALL
NO_CHARGES


@<TRIPOS>ATOM
   1 C1            -0.3493    -0.7026    -2.1263 C.ar    
   2 C2            -0.7976    -0.0351    -0.9910 C.ar    
   3 C3            -0.7691     1.3558    -0.9897 C.ar    
   4 N4            -0.3200     1.9897    -2.0604 N.ar    
   5 C5             0.0963     1.3212    -3.1172 C.ar    
   6 N6             0.0849     0.0040    -3.1568 N.ar    
   7 C7            -1.2358    -2.0817     0.0324 C.ar    
   8 C8            -0.0424    -2.7768     0.1686 C.ar    
   9 N9            -0.0182    -4.0941     0.1206 N.ar    
  10 C10           -1.1143    -4.8038    -0.0571 C.ar    
  11 C11           -2.3484    -4.1821    -0.2022 C.ar    
  12 C12           -2.4154    -2.7929    -0.1568 C.ar    
  13 N13           -3.5072    -4.9420    -0.3914 N.am    
  14 C14           -4.6721    -4.5420     0.1559 C.2     
  15 O15           -1.2520    -0.7240     0.0888 O.3     
  16 C16           -5.8726    -5.4039     0.0545 C.ar    
  17 C17           -7.0726    -4.9850     0.6218 C.ar    
  18 C18           -8.1896    -5.8046     0.5182 C.ar    
  19 C19           -8.0620    -7.0147    -0.1508 C.ar    
  20 C20           -6.8357    -7.3655    -0.6902 C.ar    
  21 N21           -5.7960    -6.5671    -0.5816 N.ar    
  22 O22           -4.7377    -3.4742     0.7325 O.2     
  23 F23           -9.3719    -5.4332     1.0561 F       
  24 H24           -0.3517    -1.7819    -2.1640 H       
  25 H25           -1.1091     1.9100    -0.1273 H       
  26 H26            0.4567     1.8687    -3.9755 H       
  27 H27            0.8783    -2.2317     0.3155 H       
  28 H28           -1.0525    -5.8816    -0.0907 H       
  29 H29           -3.3597    -2.2802    -0.2660 H       
  30 H30           -3.4725    -5.7568    -0.9164 H       
  31 H31           -7.1345    -4.0368     1.1353 H       
  32 H32           -8.9104    -7.6757    -0.2492 H       
  33 H33           -6.7327    -8.3059    -1.2112 H       
@<TRIPOS>BOND
   1    1    2 ar
   2    1    6 ar
   3    1   24 1
   4    2    3 ar
   5    2   15 1
   6    3    4 ar
   7    3   25 1
   8    4    5 ar
   9    5    6 ar
  10    5   26 1
  11    7    8 ar
  12    7   12 ar
  13    7   15 1
  14    8    9 ar
  15    8   27 1
  16    9   10 ar
  17   10   11 ar
  18   10   28 1
  19   11   12 ar
  20   11   13 1
  21   12   29 1
  22   13   14 am
  23   13   30 1
  24   14   16 1
  25   14   22 2
  26   16   17 ar
  27   16   21 ar
  28   17   18 ar
  29   17   31 1
  30   18   19 ar
  31   18   23 1
  32   19   20 ar
  33   19   32 1
  34   20   21 ar
  35   20   33 1

#	End of record

