#	Name: ASD03540396
#	Creating user name:	WinNT
#	Creation time:	15. 06. 2019 20:43

#	Modifying user name:	WinNT
#	Modification time:	15. 06. 2019 20:43

#	Program:	/corina/corina34_cracker 3.40 0067  02.08.2006

@<TRIPOS>MOLECULE
ASD03540396
  50   54    0    0    0
SMALL
NO_CHARGES


@<TRIPOS>ATOM
   1 N1            -0.0161     1.3395     0.0094 N.am    
   2 C2             0.0021    -0.0041     0.0020 C.2     
   3 N3             1.1389    -0.7173    -0.0126 N.am    
   4 C4             2.3459    -0.1107    -0.0209 C.2     
   5 C5             2.3856     1.3633    -0.0133 C.ar    
   6 C6             3.5869     2.0604    -0.0206 C.ar    
   7 C7             3.5657     3.4551    -0.0124 C.ar    
   8 C8             2.3429     4.1385     0.0033 C.ar    
   9 C9             1.1618     3.4521     0.0104 C.ar    
  10 C10            1.1635     2.0628     0.0020 C.ar    
  11 C11            4.8323     4.2113    -0.0199 C.2     
  12 O12            5.8932     3.6192    -0.0332 O.2     
  13 O13            4.8127     5.5585    -0.0121 O.3     
  14 O14            3.3720    -0.7627    -0.0337 O.2     
  15 O15           -1.0577    -0.5997     0.0093 O.2     
  16 C16            1.0696    -2.1807    -0.0194 C.3     
  17 C17            1.0320    -2.6753    -1.4424 C.ar    
  18 C18            2.2105    -2.9587    -2.1070 C.ar    
  19 C19            2.1760    -3.4123    -3.4123 C.ar    
  20 C20            0.9630    -3.5830    -4.0529 C.ar    
  21 C21           -0.2155    -3.3004    -3.3880 C.ar    
  22 C22           -0.1812    -2.8509    -2.0813 C.ar    
  23 C23            6.0967     6.2365    -0.0202 C.3     
  24 O24            5.2829    11.7908     0.2798 O.3     
  25 C25            5.6865    11.9592     1.6516 C.3     
  26 O26            5.4656    10.6615     2.2351 O.3     
  27 C27            5.5874     9.7735     1.2056 C.ar    
  28 C28            5.4750    10.4680     0.0031 C.ar    
  29 C29            5.7883     8.4032     1.1934 C.ar    
  30 C30            5.8775     7.7275    -0.0097 C.ar    
  31 C31            5.7665     8.4165    -1.2026 C.ar    
  32 C32            5.5654     9.7846    -1.1982 C.ar    
  33 H33           -0.8657     1.8077     0.0159 H       
  34 H34            4.5268     1.5286    -0.0320 H       
  35 H35            2.3339     5.2185     0.0102 H       
  36 H36            0.2255     3.9901     0.0226 H       
  37 H37            1.9463    -2.5883     0.4839 H       
  38 H38            0.1684    -2.5041     0.5016 H       
  39 H39            3.1582    -2.8254    -1.6065 H       
  40 H40            3.0968    -3.6331    -3.9318 H       
  41 H41            0.9361    -3.9367    -5.0730 H       
  42 H42           -1.1632    -3.4334    -3.8887 H       
  43 H43           -1.1021    -2.6336    -1.5606 H       
  44 H44            6.6661     5.9468     0.8629 H       
  45 H45            6.6495     5.9569    -0.9170 H       
  46 H46            6.7404    12.2311     1.7102 H       
  47 H47            5.0683    12.7104     2.1433 H       
  48 H48            5.8761     7.8623     2.1241 H       
  49 H49            5.8367     7.8853    -2.1403 H       
  50 H50            5.4783    10.3204    -2.1318 H       
@<TRIPOS>BOND
   1    1    2 am
   2    1   10 1
   3    1   33 1
   4    2    3 am
   5    2   15 2
   6    3    4 am
   7    3   16 1
   8    4    5 1
   9    4   14 2
  10    5    6 ar
  11    5   10 ar
  12    6    7 ar
  13    6   34 1
  14    7    8 ar
  15    7   11 1
  16    8    9 ar
  17    8   35 1
  18    9   10 ar
  19    9   36 1
  20   11   12 2
  21   11   13 1
  22   13   23 1
  23   16   17 1
  24   16   37 1
  25   16   38 1
  26   17   18 ar
  27   17   22 ar
  28   18   19 ar
  29   18   39 1
  30   19   20 ar
  31   19   40 1
  32   20   21 ar
  33   20   41 1
  34   21   22 ar
  35   21   42 1
  36   22   43 1
  37   23   30 1
  38   23   44 1
  39   23   45 1
  40   24   25 1
  41   24   28 1
  42   25   26 1
  43   25   46 1
  44   25   47 1
  45   26   27 1
  46   27   28 ar
  47   27   29 ar
  48   28   32 ar
  49   29   30 ar
  50   29   48 1
  51   30   31 ar
  52   31   32 ar
  53   31   49 1
  54   32   50 1

#	End of record

