#	Name: ASD08150780
#	Creating user name:	WinNT
#	Creation time:	15. 06. 2019 21:16

#	Modifying user name:	WinNT
#	Modification time:	15. 06. 2019 21:16

#	Program:	/corina/corina34_cracker 3.40 0067  02.08.2006

@<TRIPOS>MOLECULE
ASD08150780
  62   65    0    0    0
SMALL
NO_CHARGES


@<TRIPOS>ATOM
   1 C1            -0.0172     1.3318     0.1110 C.2     
   2 N2            -0.0003     0.0021     0.2008 N.2     
   3 C3             1.1330    -0.6713     0.2849 C.2     
   4 C4             2.3485     0.0109     0.2809 C.2     
   5 C5             2.3336     1.4185     0.1859 C.2     
   6 N6             1.1444     2.0530     0.1020 N.am    
   7 C7            -1.2508     2.0011     0.0181 C.2     
   8 C8            -1.2712     3.3610    -0.0739 C.2     
   9 C9            -0.0633     4.0724    -0.0747 C.2     
  10 C10            1.1134     3.4117     0.0084 C.2     
  11 O11            3.3766     2.0514     0.1801 O.2     
  12 C12            2.4054     4.1875    -0.0001 C.3     
  13 C13            2.1018     5.6827    -0.1138 C.3     
  14 C14            3.6294    -0.7267     0.3749 C.ar    
  15 C15            4.5275    -0.7079    -0.6919 C.ar    
  16 C16            5.7215    -1.3979    -0.5993 C.ar    
  17 C17            6.0266    -2.1078     0.5506 C.ar    
  18 C18            5.1378    -2.1296     1.6130 C.ar    
  19 C19            3.9440    -1.4378     1.5327 C.ar    
  20 F20            5.4411    -2.8237     2.7317 F       
  21 F21            6.5923    -1.3805    -1.6320 F       
  22 C22            1.1117    -2.1748     0.3856 C.3     
  23 C23            0.4507    -2.5885     1.7020 C.3     
  24 N24            0.3516    -2.7287    -0.7377 N.pl3   
  25 N25           -1.1034    -4.1103    -3.0634 N.2     
  26 C26           -1.4235    -5.0394    -3.9158 C.2     
  27 N27           -0.6636    -6.1518    -3.6993 N.pl3   
  28 C28            0.1727    -5.8799    -2.6464 C.ar    
  29 N29            1.1140    -6.5586    -1.9980 N.ar    
  30 C30            1.7685    -6.0059    -0.9895 C.ar    
  31 N31            1.5245    -4.7674    -0.5807 N.ar    
  32 C32            0.6001    -4.0187    -1.1719 C.ar    
  33 C33           -0.1205    -4.5653    -2.2478 C.ar    
  34 N34            2.7422    -6.7454    -0.3386 N.pl3   
  35 H35           -2.1748     1.4420     0.0194 H       
  36 H36           -2.2117     3.8869    -0.1461 H       
  37 H37           -0.0725     5.1499    -0.1474 H       
  38 H38            2.9500     3.9966     0.9246 H       
  39 H39            3.0117     3.8742    -0.8501 H       
  40 H40            1.5573     5.8736    -1.0386 H       
  41 H41            1.4955     5.9960     0.7361 H       
  42 H42            3.0363     6.2438    -0.1200 H       
  43 H43            4.2902    -0.1554    -1.5890 H       
  44 H44            6.9603    -2.6463     0.6188 H       
  45 H45            3.2537    -1.4517     2.3632 H       
  46 H46            2.1326    -2.5553     0.3563 H       
  47 H47            0.4353    -3.6759     1.7748 H       
  48 H48            1.0162    -2.1763     2.5377 H       
  49 H49           -0.5702    -2.2079     1.7313 H       
  50 H50           -0.3258    -2.1911    -1.1770 H       
  51 H51           -2.1791    -4.9443    -4.6815 H       
  52 H52           -0.7070    -6.9826    -4.1982 H       
  53 H53            2.9342    -7.6524    -0.6242 H       
  54 H54            3.2320    -6.3564     0.4027 H       
  55 C55           13.1317    13.2320     8.8785 C.2     
  56 C56           13.1521    11.7252     8.8702 C.3     
  57 O57           14.1697    13.8503     8.8719 O.2     
  58 O58           11.9603    13.8873     8.8876 O.3     
  59 F59           14.4773    11.2769     8.8552 F       
  60 F60           12.5100    11.2438    10.0161 F       
  61 F61           12.4882    11.2561     7.7317 F       
  62 H62           11.9978    14.8536     8.8927 H       
@<TRIPOS>BOND
   1    1    2 2
   2    1    6 1
   3    1    7 1
   4    2    3 1
   5    3    4 2
   6    3   22 1
   7    4    5 1
   8    4   14 1
   9    5    6 am
  10    5   11 2
  11    6   10 1
  12    7    8 2
  13    7   35 1
  14    8    9 1
  15    8   36 1
  16    9   10 2
  17    9   37 1
  18   10   12 1
  19   12   13 1
  20   12   38 1
  21   12   39 1
  22   13   40 1
  23   13   41 1
  24   13   42 1
  25   14   15 ar
  26   14   19 ar
  27   15   16 ar
  28   15   43 1
  29   16   17 ar
  30   16   21 1
  31   17   18 ar
  32   17   44 1
  33   18   19 ar
  34   18   20 1
  35   19   45 1
  36   22   23 1
  37   22   24 1
  38   22   46 1
  39   23   47 1
  40   23   48 1
  41   23   49 1
  42   24   32 1
  43   24   50 1
  44   25   26 2
  45   25   33 1
  46   26   27 1
  47   26   51 1
  48   27   28 1
  49   27   52 1
  50   28   29 ar
  51   28   33 ar
  52   29   30 ar
  53   30   31 ar
  54   30   34 1
  55   31   32 ar
  56   32   33 ar
  57   34   53 1
  58   34   54 1
  59   55   56 1
  60   55   57 2
  61   55   58 1
  62   56   59 1
  63   56   60 1
  64   56   61 1
  65   58   62 1

#	End of record

