#	Name: ASD08170798
#	Creating user name:	WinNT
#	Creation time:	15. 06. 2019 21:18

#	Modifying user name:	WinNT
#	Modification time:	15. 06. 2019 21:18

#	Program:	/corina/corina34_cracker 3.40 0067  02.08.2006

@<TRIPOS>MOLECULE
ASD08170798
  61   64    0    0    0
SMALL
NO_CHARGES


@<TRIPOS>ATOM
   1 C1            -0.0162     1.3436     0.0094 C.2     
   2 N2             0.0021    -0.0041     0.0020 N.am    
   3 C3             1.2158    -0.6830    -0.0132 C.2     
   4 S4             1.4076    -2.3853    -0.0242 S.3     
   5 C5             3.1581    -2.1679    -0.0397 C.2     
   6 C6             4.1900    -3.2660    -0.0555 C.3     
   7 C7             7.1341    -6.3828     3.2824 C.3     
   8 C8             7.3803    -6.6377     4.7471 C.2     
   9 S9             8.5882    -5.8382     5.7537 S.3     
  10 C10            8.0647    -6.7728     7.0905 C.2     
  11 N11            2.3916    -0.1314    -0.0271 N.2     
  12 N12            3.3971    -0.8949    -0.0352 N.2     
  13 N13            6.7391    -7.4792     5.4944 N.2     
  14 N14            7.0991    -7.5501     6.7024 N.2     
  15 O15            1.0258     1.9642     0.0028 O.2     
  16 C16           -1.3314     2.0792     0.0197 C.3     
  17 N17            8.5872    -6.7101     8.3778 N.am    
  18 C18            8.0869    -7.5012     9.3475 C.2     
  19 C19            8.6531    -7.4332    10.7424 C.3     
  20 O20            7.1809    -8.2678     9.0975 O.2     
  21 C21            4.5530    -3.6454     1.3816 C.3     
  22 C22            6.0914    -5.2741     3.1258 C.3     
  23 O23           -1.0924     3.4837    -0.0913 O.3     
  24 C24           10.0856    -7.9009    10.7264 C.ar    
  25 O25            7.8875    -8.2731    11.6087 O.3     
  26 C26           11.1142    -6.9774    10.7245 C.ar    
  27 C27           12.4282    -7.4064    10.7097 C.ar    
  28 C28           12.7137    -8.7589    10.6973 C.ar    
  29 C29           11.6851    -9.6824    10.7001 C.ar    
  30 C30           10.3711    -9.2534    10.7193 C.ar    
  31 C31           -2.0568     1.7934     1.3093 C.ar    
  32 C32           -2.9984     0.7828     1.3633 C.ar    
  33 C33           -1.7766     2.5381     2.4397 C.ar    
  34 C34           -2.4420     2.2760     3.6226 C.ar    
  35 C35           -3.3880     1.2694     3.6751 C.ar    
  36 C36           -3.6639     0.5207     2.5462 C.ar    
  37 S37            5.7952    -4.9672     1.3627 S.3     
  38 H38           -0.8313    -0.5005     0.0073 H       
  39 H39            3.7854    -4.1375    -0.5701 H       
  40 H40            5.0824    -2.9185    -0.5760 H       
  41 H41            8.0650    -6.0760     2.8055 H       
  42 H42            6.7680    -7.2950     2.8113 H       
  43 H43           -1.9402     1.7468    -0.8211 H       
  44 H44            9.3118    -6.0970     8.5778 H       
  45 H45            8.6105    -6.4052    11.1021 H       
  46 H46            4.9576    -2.7739     1.8963 H       
  47 H47            3.6606    -3.9929     1.9021 H       
  48 H48            5.1605    -5.5808     3.6027 H       
  49 H49            6.4576    -4.3618     3.5969 H       
  50 H50           -0.5555     3.8491     0.6252 H       
  51 H51            7.8807    -9.2045    11.3486 H       
  52 H52           10.8912    -5.9207    10.7342 H       
  53 H53           13.2319    -6.6848    10.7076 H       
  54 H54           13.7403    -9.0940    10.6851 H       
  55 H55           11.9081   -10.7391    10.6901 H       
  56 H56            9.5675    -9.9750    10.7215 H       
  57 H57           -3.2144     0.1983     0.4812 H       
  58 H58           -1.0375     3.3246     2.3987 H       
  59 H59           -2.2225     2.8573     4.5059 H       
  60 H60           -3.9076     1.0643     4.5994 H       
  61 H61           -4.4030    -0.2658     2.5872 H       
@<TRIPOS>BOND
   1    1    2 am
   2    1   15 2
   3    1   16 1
   4    2    3 1
   5    2   38 1
   6    3    4 1
   7    3   11 2
   8    4    5 1
   9    5    6 1
  10    5   12 2
  11    6   21 1
  12    6   39 1
  13    6   40 1
  14    7    8 1
  15    7   22 1
  16    7   41 1
  17    7   42 1
  18    8    9 1
  19    8   13 2
  20    9   10 1
  21   10   17 1
  22   10   14 2
  23   11   12 1
  24   13   14 1
  25   16   23 1
  26   16   31 1
  27   16   43 1
  28   17   18 am
  29   17   44 1
  30   18   19 1
  31   18   20 2
  32   19   24 1
  33   19   25 1
  34   19   45 1
  35   21   37 1
  36   21   46 1
  37   21   47 1
  38   22   37 1
  39   22   48 1
  40   22   49 1
  41   23   50 1
  42   24   26 ar
  43   24   30 ar
  44   25   51 1
  45   26   27 ar
  46   26   52 1
  47   27   28 ar
  48   27   53 1
  49   28   29 ar
  50   28   54 1
  51   29   30 ar
  52   29   55 1
  53   30   56 1
  54   31   32 ar
  55   31   33 ar
  56   32   36 ar
  57   32   57 1
  58   33   34 ar
  59   33   58 1
  60   34   35 ar
  61   34   59 1
  62   35   36 ar
  63   35   60 1
  64   36   61 1

#	End of record

