#	Name: ASD01883207
#	Creating user name:	WinNT
#	Creation time:	15. 06. 2019 19:46

#	Modifying user name:	WinNT
#	Modification time:	15. 06. 2019 19:46

#	Program:	/corina/corina34_cracker 3.40 0067  02.08.2006

@<TRIPOS>MOLECULE
ASD01883207
  48   50    0    0    0
SMALL
NO_CHARGES


@<TRIPOS>ATOM
   1 N1            -0.2494     1.5396    -1.2551 N.am    
   2 C2            -0.3329     0.2818    -1.7268 C.2     
   3 C3            -1.5158    -0.4710    -1.5262 C.2     
   4 C4            -2.5845     0.1234    -0.8308 C.2     
   5 C5            -2.4351     1.4440    -0.3618 C.2     
   6 C6            -1.2794     2.1109    -0.5790 C.2     
   7 O7             0.6084    -0.2088    -2.3266 O.2     
   8 C8            -1.6220    -1.8103    -2.0217 C.1     
   9 N9            -1.7062    -2.8728    -2.4148 N.1     
  10 C10            0.9804     2.3061    -1.4702 C.3     
  11 C11            0.8781     3.0748    -2.7892 C.3     
  12 C12            2.1625     3.8753    -3.0138 C.3     
  13 C13            3.3379     2.9130    -3.1963 C.3     
  14 C14            2.0119     4.7399    -4.2671 C.3     
  15 C15           -3.8380    -0.6212    -0.5973 C.ar    
  16 C16           -4.1227    -1.1340     0.6708 C.ar    
  17 C17           -5.2930    -1.8275     0.8848 C.ar    
  18 C18           -6.1919    -2.0192    -0.1583 C.ar    
  19 C19           -5.9151    -1.5121    -1.4215 C.ar    
  20 C20           -4.7476    -0.8107    -1.6444 C.ar    
  21 O21           -7.3436    -2.7045     0.0582 O.3     
  22 C22           -7.3377    -4.0446    -0.1568 C.ar    
  23 C23           -6.1585    -4.7106    -0.4823 C.ar    
  24 C24           -6.1941    -6.0737    -0.6928 C.ar    
  25 N25           -7.3257    -6.7446    -0.5891 N.ar    
  26 C26           -8.4629    -6.1494    -0.2827 C.ar    
  27 C27           -8.5097    -4.7899    -0.0519 C.ar    
  28 F28           -4.4781    -0.3174    -2.8729 F       
  29 H29           -3.2417     1.9213     0.1747 H       
  30 H30           -1.1762     3.1224    -0.2147 H       
  31 H31            1.1182     3.0098    -0.6493 H       
  32 H32            1.8305     1.6251    -1.5116 H       
  33 H33            0.7403     2.3710    -3.6101 H       
  34 H34            0.0280     3.7558    -2.7479 H       
  35 H35            2.3473     4.5153    -2.1511 H       
  36 H36            3.1530     2.2731    -4.0591 H       
  37 H37            4.2529     3.4834    -3.3563 H       
  38 H38            3.4452     2.2971    -2.3034 H       
  39 H39            1.1745     5.4254    -4.1372 H       
  40 H40            2.9269     5.3102    -4.4272 H       
  41 H41            1.8270     4.0999    -5.1299 H       
  42 H42           -3.4254    -0.9869     1.4823 H       
  43 H43           -5.5128    -2.2238     1.8651 H       
  44 H44           -6.6162    -1.6633    -2.2290 H       
  45 H45           -5.2290    -4.1674    -0.5690 H       
  46 H46           -5.2845    -6.5981    -0.9459 H       
  47 H47           -9.3676    -6.7345    -0.2076 H       
  48 H48           -9.4437    -4.3090     0.1984 H       
@<TRIPOS>BOND
   1    1    2 am
   2    1   10 1
   3    1    6 1
   4    2    3 1
   5    2    7 2
   6    3    4 2
   7    3    8 1
   8    4    5 1
   9    4   15 1
  10    5    6 2
  11    5   29 1
  12    6   30 1
  13    8    9 3
  14   10   11 1
  15   10   31 1
  16   10   32 1
  17   11   12 1
  18   11   33 1
  19   11   34 1
  20   12   13 1
  21   12   14 1
  22   12   35 1
  23   13   36 1
  24   13   37 1
  25   13   38 1
  26   14   39 1
  27   14   40 1
  28   14   41 1
  29   15   16 ar
  30   15   20 ar
  31   16   17 ar
  32   16   42 1
  33   17   18 ar
  34   17   43 1
  35   18   19 ar
  36   18   21 1
  37   19   20 ar
  38   19   44 1
  39   20   28 1
  40   21   22 1
  41   22   23 ar
  42   22   27 ar
  43   23   24 ar
  44   23   45 1
  45   24   25 ar
  46   24   46 1
  47   25   26 ar
  48   26   27 ar
  49   26   47 1
  50   27   48 1

#	End of record

