#	Name: ASD01911771
#	Creating user name:	WinNT
#	Creation time:	15. 06. 2019 19:58

#	Modifying user name:	WinNT
#	Modification time:	15. 06. 2019 19:58

#	Program:	/corina/corina34_cracker 3.40 0067  02.08.2006

@<TRIPOS>MOLECULE
ASD01911771
  41   43    0    0    0
SMALL
NO_CHARGES


@<TRIPOS>ATOM
   1 N1            -0.0178     1.4648     0.0101 N.3     
   2 C2             0.0021    -0.0041     0.0020 C.3     
   3 C3            -1.4117    -0.5257     0.0127 C.2     
   4 C4            -1.8535    -1.5806     0.7086 C.2     
   5 S5            -2.7697     0.1527    -0.8829 S.3     
   6 C6            -3.8242    -1.0920    -0.2177 C.2     
   7 N7            -3.1270    -1.8632     0.5728 N.2     
   8 C8            -5.2221    -1.2323    -0.4950 C.1     
   9 C9            -6.3682    -1.3473    -0.7223 C.1     
  10 C10           -7.7660    -1.4876    -0.9995 C.ar    
  11 C11           -8.4992    -2.5207    -0.4084 C.ar    
  12 C12           -9.8452    -2.6490    -0.6798 C.ar    
  13 C13          -10.4702    -1.7584    -1.5351 C.ar    
  14 C14           -9.7509    -0.7334    -2.1244 C.ar    
  15 C15           -8.4056    -0.5887    -1.8582 C.ar    
  16 C16           -0.7848     1.9744     1.1540 C.3     
  17 C17            1.3458     2.0096     0.0000 C.3     
  18 C18            1.2870     3.5326    -0.1380 C.3     
  19 C19            0.4928     4.1162     1.0339 C.3     
  20 C20           -0.9072     3.4963     1.0504 C.3     
  21 C21            0.7182    -0.4975    -1.2568 C.3     
  22 H22            0.5293    -0.3651     0.8851 H       
  23 H23           -1.2013    -2.1631     1.3424 H       
  24 H24           -8.0128    -3.2167     0.2590 H       
  25 H25          -10.4129    -3.4469    -0.2242 H       
  26 H26          -11.5245    -1.8640    -1.7439 H       
  27 H27          -10.2455    -0.0424    -2.7910 H       
  28 H28           -7.8457     0.2119    -2.3185 H       
  29 H29           -1.7797     1.5290     1.1516 H       
  30 H30           -0.2725     1.7134     2.0800 H       
  31 H31            1.8481     1.7485     0.9314 H       
  32 H32            1.8984     1.5899    -0.8405 H       
  33 H33            2.2987     3.9381    -0.1298 H       
  34 H34            0.7970     3.7944    -1.0758 H       
  35 H35            1.0033     3.8878     1.9695 H       
  36 H36            0.4114     5.1968     0.9166 H       
  37 H37           -1.4317     3.7575     0.1313 H       
  38 H38           -1.4632     3.8759     1.9077 H       
  39 H39            0.7330    -1.5874    -1.2628 H       
  40 H40            0.1910    -0.1364    -2.1398 H       
  41 H41            1.7408    -0.1202    -1.2645 H       
@<TRIPOS>BOND
   1    1    2 1
   2    1   17 1
   3    1   16 1
   4    2    3 1
   5    2   21 1
   6    2   22 1
   7    3    4 2
   8    3    5 1
   9    4    7 1
  10    4   23 1
  11    5    6 1
  12    6    7 2
  13    6    8 1
  14    8    9 3
  15    9   10 1
  16   10   11 ar
  17   10   15 ar
  18   11   12 ar
  19   11   24 1
  20   12   13 ar
  21   12   25 1
  22   13   14 ar
  23   13   26 1
  24   14   15 ar
  25   14   27 1
  26   15   28 1
  27   16   20 1
  28   16   29 1
  29   16   30 1
  30   17   18 1
  31   17   31 1
  32   17   32 1
  33   18   19 1
  34   18   33 1
  35   18   34 1
  36   19   20 1
  37   19   35 1
  38   19   36 1
  39   20   37 1
  40   20   38 1
  41   21   39 1
  42   21   40 1
  43   21   41 1

#	End of record

