#	Name: ASD01209141
#	Creating user name:	WinNT
#	Creation time:	15. 06. 2019 19:11

#	Modifying user name:	WinNT
#	Modification time:	15. 06. 2019 19:11

#	Program:	/corina/corina34_cracker 3.40 0067  02.08.2006

@<TRIPOS>MOLECULE
ASD01209141
  69   72    0    0    0
SMALL
NO_CHARGES


@<TRIPOS>ATOM
   1 C1            -0.0339     1.3229    -0.1626 C.ar    
   2 C2            -0.1405    -0.0594    -0.1122 C.ar    
   3 C3            -1.3836    -0.6585     0.0346 C.ar    
   4 C4            -2.5237     0.1221     0.1309 C.ar    
   5 C5            -2.4210     1.5130     0.0806 C.ar    
   6 C6            -1.1686     2.1113    -0.0608 C.ar    
   7 O7             1.1859     1.9046    -0.3065 O.3     
   8 C8             1.8434     1.7240    -1.4794 C.ar    
   9 O9            -1.4825    -2.0129     0.0835 O.3     
  10 C10           -2.0923    -2.6459    -0.9529 C.ar    
  11 C11           -2.3341    -4.0107    -0.8884 C.ar    
  12 C12           -3.6350     2.3501     0.1830 C.2     
  13 N13           -3.5336     3.6931     0.1342 N.am    
  14 O14           -4.7249     1.8271     0.3112 O.2     
  15 C15           -4.6743     4.4796     0.2304 C.2     
  16 P16           -5.9219     8.5093     1.9788 P.3     
  17 O17           -6.9109     7.8174     2.8353 O.2     
  18 C18           -2.9541    -4.6516    -1.9434 C.ar    
  19 C19           -3.3335    -3.9344    -3.0630 C.ar    
  20 C20           -3.0937    -2.5743    -3.1299 C.ar    
  21 C21           -2.4792    -1.9275    -2.0752 C.ar    
  22 S22           -4.1236    -4.7552    -4.4072 S.o2    
  23 O23           -3.8131    -3.9535    -5.5386 O.2     
  24 O24           -3.6686    -6.0982    -4.3139 O.2     
  25 C25           -5.8933    -4.6545    -4.0219 C.3     
  26 C26           -6.0318     7.8613     0.2784 C.3     
  27 N27           -4.6880     5.7755     0.1949 N.2     
  28 S28           -6.2657     3.8796     0.4055 S.3     
  29 C29           -6.8949     5.5250     0.4282 C.2     
  30 C30           -5.8649     6.3637     0.2998 C.2     
  31 C31            3.0454     2.3838    -1.7032 C.ar    
  32 N32            1.3367     0.9172    -2.3969 N.ar    
  33 C33            1.9436     0.7130    -3.5507 C.ar    
  34 C34            3.1387     1.3395    -3.8422 C.ar    
  35 C35            3.7061     2.1906    -2.9035 C.ar    
  36 O36           -6.2302    10.0895     1.9720 O.3     
  37 C37           -6.6250    12.3246     2.8018 C.3     
  38 C38           -6.3236    10.8694     3.1657 C.3     
  39 O39           -4.4406     8.2540     2.5557 O.3     
  40 C40           -2.5962     8.1923     4.1161 C.3     
  41 C41           -4.0671     8.5549     3.9018 C.3     
  42 H42            0.7465    -0.6709    -0.1877 H       
  43 H43           -3.4909    -0.3449     0.2444 H       
  44 H44           -1.0847     3.1873    -0.1002 H       
  45 H45           -2.0376    -4.5714    -0.0143 H       
  46 H46           -2.6640     4.1104     0.0319 H       
  47 H47           -3.1423    -5.7140    -1.8938 H       
  48 H48           -3.3907    -2.0165    -4.0056 H       
  49 H49           -2.2921    -0.8651    -2.1279 H       
  50 H50           -6.1910    -3.6082    -3.9523 H       
  51 H51           -6.4653    -5.1434    -4.8105 H       
  52 H52           -6.0870    -5.1513    -3.0712 H       
  53 H53           -7.0048     8.1124    -0.1439 H       
  54 H54           -5.2453     8.3059    -0.3314 H       
  55 H55           -7.9332     5.8057     0.5256 H       
  56 H56            3.4583     3.0391    -0.9505 H       
  57 H57            1.4999     0.0471    -4.2760 H       
  58 H58            3.6291     1.1662    -4.7887 H       
  59 H59            4.6403     2.6930    -3.1068 H       
  60 H60           -6.6963    12.9195     3.7124 H       
  61 H61           -5.8242    12.7156     2.1741 H       
  62 H62           -7.5693    12.3755     2.2597 H       
  63 H63           -7.1244    10.4785     3.7934 H       
  64 H64           -5.3793    10.8185     3.7078 H       
  65 H65           -2.3112     8.4219     5.1428 H       
  66 H66           -2.4533     7.1281     3.9287 H       
  67 H67           -1.9761     8.7686     3.4295 H       
  68 H68           -4.2100     9.6191     4.0892 H       
  69 H69           -4.6871     7.9786     4.5885 H       
@<TRIPOS>BOND
   1    1    2 ar
   2    1    7 1
   3    1    6 ar
   4    2    3 ar
   5    2   42 1
   6    3    4 ar
   7    3    9 1
   8    4    5 ar
   9    4   43 1
  10    5    6 ar
  11    5   12 1
  12    6   44 1
  13    7    8 1
  14    8   31 ar
  15    8   32 ar
  16    9   10 1
  17   10   11 ar
  18   10   21 ar
  19   11   18 ar
  20   11   45 1
  21   12   13 am
  22   12   14 2
  23   13   15 1
  24   13   46 1
  25   15   27 2
  26   15   28 1
  27   16   17 2
  28   16   36 1
  29   16   39 1
  30   16   26 1
  31   18   19 ar
  32   18   47 1
  33   19   20 ar
  34   19   22 1
  35   20   21 ar
  36   20   48 1
  37   21   49 1
  38   22   23 2
  39   22   24 2
  40   22   25 1
  41   25   50 1
  42   25   51 1
  43   25   52 1
  44   26   30 1
  45   26   53 1
  46   26   54 1
  47   27   30 1
  48   28   29 1
  49   29   30 2
  50   29   55 1
  51   31   35 ar
  52   31   56 1
  53   32   33 ar
  54   33   34 ar
  55   33   57 1
  56   34   35 ar
  57   34   58 1
  58   35   59 1
  59   36   38 1
  60   37   38 1
  61   37   60 1
  62   37   61 1
  63   37   62 1
  64   38   63 1
  65   38   64 1
  66   39   41 1
  67   40   41 1
  68   40   65 1
  69   40   66 1
  70   40   67 1
  71   41   68 1
  72   41   69 1

#	End of record

