#	Name: ASD02770042
#	Creating user name:	WinNT
#	Creation time:	15. 06. 2019 20:26

#	Modifying user name:	WinNT
#	Modification time:	15. 06. 2019 20:26

#	Program:	/corina/corina34_cracker 3.40 0067  02.08.2006

@<TRIPOS>MOLECULE
ASD02770042
  33   34    0    0    0
SMALL
NO_CHARGES


@<TRIPOS>ATOM
   1 C1            -0.0183     1.4887     0.0144 C.2     
   2 C2             0.0015    -0.0044     0.0109 C.2     
   3 O3             1.0247     2.1096     0.0075 O.2     
   4 N4            -1.1944     2.1470     0.0194 N.am    
   5 O5            -1.0413    -0.6252     0.0177 O.2     
   6 N6             1.1775    -0.6627     0.0003 N.am    
   7 C7             1.1970    -2.1276    -0.0031 C.3     
   8 C8             2.6461    -2.6183    -0.0155 C.3     
   9 C9             2.6665    -4.1482    -0.0190 C.3     
  10 O10            3.3042    -2.1305    -1.1864 O.3     
  11 O11           -1.0669     7.6298     0.6205 O.3     
  12 C12            0.2759     7.7264     1.1311 C.3     
  13 O13            0.5143     6.4317     1.7143 O.3     
  14 C14           -0.2875     5.5681     1.0252 C.ar    
  15 C15           -1.2604     6.3046     0.3522 C.ar    
  16 C16           -0.2669     4.1885     0.9144 C.ar    
  17 C17           -1.2151     3.5408     0.1326 C.ar    
  18 C18           -2.1833     4.2777    -0.5368 C.ar    
  19 C19           -2.2046     5.6550    -0.4261 C.ar    
  20 H20           -2.0264     1.6541    -0.0555 H       
  21 H21            2.0110    -0.1666    -0.0051 H       
  22 H22            0.6951    -2.4997     0.8901 H       
  23 H23            0.6811    -2.4958    -0.8898 H       
  24 H24            3.1620    -2.2501     0.8713 H       
  25 H25            2.1506    -4.5164    -0.9058 H       
  26 H26            3.6989    -4.4978    -0.0278 H       
  27 H27            2.1645    -4.5203     0.8742 H       
  28 H28            2.8980    -2.4194    -2.0150 H       
  29 H29            0.9805     7.9175     0.3218 H       
  30 H30            0.3419     8.5062     1.8899 H       
  31 H31            0.4865     3.6159     1.4350 H       
  32 H32           -2.9202     3.7739    -1.1448 H       
  33 H33           -2.9585     6.2260    -0.9476 H       
@<TRIPOS>BOND
   1    1    2 1
   2    1    3 2
   3    1    4 am
   4    2    5 2
   5    2    6 am
   6    4   17 1
   7    4   20 1
   8    6    7 1
   9    6   21 1
  10    7    8 1
  11    7   22 1
  12    7   23 1
  13    8    9 1
  14    8   10 1
  15    8   24 1
  16    9   25 1
  17    9   26 1
  18    9   27 1
  19   10   28 1
  20   11   12 1
  21   11   15 1
  22   12   13 1
  23   12   29 1
  24   12   30 1
  25   13   14 1
  26   14   15 ar
  27   14   16 ar
  28   15   19 ar
  29   16   17 ar
  30   16   31 1
  31   17   18 ar
  32   18   19 ar
  33   18   32 1
  34   19   33 1

#	End of record

