#	Name: ASD03740206
#	Creating user name:	WinNT
#	Creation time:	15. 06. 2019 20:46

#	Modifying user name:	WinNT
#	Modification time:	15. 06. 2019 20:46

#	Program:	/corina/corina34_cracker 3.40 0067  02.08.2006

@<TRIPOS>MOLECULE
ASD03740206
  62   66    0    0    0
SMALL
NO_CHARGES


@<TRIPOS>ATOM
   1 C1            -0.0168     1.3898     0.0097 C.ar    
   2 C2             0.0021    -0.0041     0.0020 C.ar    
   3 C3             1.2336    -0.6903    -0.0134 C.ar    
   4 C4             2.4244     0.0190    -0.0205 C.ar    
   5 C5             2.4102     1.4049    -0.0125 C.ar    
   6 C6             1.1831     2.0992     0.0020 C.ar    
   7 N7             1.2535    -2.0775    -0.0211 N.pl3   
   8 N8             3.6050     2.1100    -0.0187 N.pl3   
   9 N9             1.1702     3.4610     0.0095 N.2     
  10 N10           -1.1674    -0.7019     0.0099 N.2     
  11 N11           -2.2936    -0.0731     0.0244 N.2     
  12 N12            0.0471     4.0953     0.0236 N.2     
  13 C13           -3.4678    -0.7738     0.0323 C.ar    
  14 C14            0.0341     5.4626     0.0311 C.ar    
  15 C15           -5.8700    -0.8095     0.0560 C.ar    
  16 C16           -5.8462    -2.1931     0.0483 C.ar    
  17 C17           -4.6398    -2.8711     0.0384 C.ar    
  18 C18           -3.4516    -2.1711     0.0305 C.ar    
  19 C19           -4.6897    -0.0961     0.0481 C.ar    
  20 C20            1.2146     7.5551     0.0247 C.ar    
  21 C21            1.2355     6.1762     0.0176 C.ar    
  22 C22           -1.1806     6.1531     0.0464 C.ar    
  23 C23           -1.1859     7.5322     0.0534 C.ar    
  24 C24            0.0078     8.2322     0.0448 C.ar    
  25 S25           -0.0089     9.9941     0.0544 S.o2    
  26 O26           -1.2548    10.3805     0.6179 O.2     
  27 O27            1.2443    10.4043     0.5840 O.2     
  28 N28           -0.0350    10.4926    -1.5246 N.am    
  29 C29           -1.1312    10.2072    -2.3234 C.2     
  30 S30           -7.3592    -3.0960     0.0590 S.o2    
  31 O31           -7.0579    -4.3777     0.5935 O.2     
  32 O32           -8.3385    -2.2314     0.6182 O.2     
  33 N33           -7.7964    -3.3387    -1.5197 N.am    
  34 C34           -7.0075    -4.1254    -2.3443 C.2     
  35 C35           -6.3957    -5.1504    -4.2287 C.2     
  36 C36           -5.3714    -5.5695    -3.4852 C.2     
  37 S37           -5.5661    -4.9092    -1.8636 S.3     
  38 N38           -7.2580    -4.3786    -3.5912 N.2     
  39 S39           -2.5232     9.3580    -1.8093 S.3     
  40 N40           -1.2528    10.5501    -3.5682 N.2     
  41 C41           -2.3687    10.1940    -4.1794 C.2     
  42 C42           -3.2294     9.5214    -3.4149 C.2     
  43 H43           -0.9585     1.9186     0.0170 H       
  44 H44            3.3660    -0.5098    -0.0320 H       
  45 H45            0.4206    -2.5746    -0.0158 H       
  46 H46            2.1004    -2.5504    -0.0317 H       
  47 H47            4.4496     1.6330    -0.0287 H       
  48 H48            3.5958     3.0800    -0.0131 H       
  49 H49           -6.8152    -0.2870     0.0633 H       
  50 H50           -4.6289    -3.9510     0.0325 H       
  51 H51           -2.5108    -2.7015     0.0224 H       
  52 H52           -4.7098     0.9837     0.0545 H       
  53 H53            2.1423     8.1080     0.0143 H       
  54 H54            2.1780     5.6491     0.0019 H       
  55 H55           -2.1131     5.6082     0.0524 H       
  56 H56           -2.1240     8.0673     0.0652 H       
  57 H57            0.7168    10.9845    -1.8904 H       
  58 H58           -8.6047    -2.9303    -1.8674 H       
  59 H59           -6.5100    -5.4182    -5.2687 H       
  60 H60           -4.5644    -6.2052    -3.8183 H       
  61 H61           -2.5686    10.4307    -5.2140 H       
  62 H62           -4.1930     9.1450    -3.7250 H       
@<TRIPOS>BOND
   1    1    2 ar
   2    1    6 ar
   3    1   43 1
   4    2    3 ar
   5    2   10 1
   6    3    4 ar
   7    3    7 1
   8    4    5 ar
   9    4   44 1
  10    5    6 ar
  11    5    8 1
  12    6    9 1
  13    7   45 1
  14    7   46 1
  15    8   47 1
  16    8   48 1
  17    9   12 2
  18   10   11 2
  19   11   13 1
  20   12   14 1
  21   13   19 ar
  22   13   18 ar
  23   14   22 ar
  24   14   21 ar
  25   15   16 ar
  26   15   19 ar
  27   15   49 1
  28   16   17 ar
  29   16   30 1
  30   17   18 ar
  31   17   50 1
  32   18   51 1
  33   19   52 1
  34   20   21 ar
  35   20   24 ar
  36   20   53 1
  37   21   54 1
  38   22   23 ar
  39   22   55 1
  40   23   24 ar
  41   23   56 1
  42   24   25 1
  43   25   26 2
  44   25   27 2
  45   25   28 am
  46   28   29 1
  47   28   57 1
  48   29   40 2
  49   29   39 1
  50   30   31 2
  51   30   32 2
  52   30   33 am
  53   33   34 1
  54   33   58 1
  55   34   38 2
  56   34   37 1
  57   35   36 2
  58   35   38 1
  59   35   59 1
  60   36   37 1
  61   36   60 1
  62   39   42 1
  63   40   41 1
  64   41   42 2
  65   41   61 1
  66   42   62 1

#	End of record

