#	Name: ASD03490133
#	Creating user name:	WinNT
#	Creation time:	15. 06. 2019 20:42

#	Modifying user name:	WinNT
#	Modification time:	15. 06. 2019 20:42

#	Program:	/corina/corina34_cracker 3.40 0067  02.08.2006

@<TRIPOS>MOLECULE
ASD03490133
  43   46    0    0    0
SMALL
NO_CHARGES


@<TRIPOS>ATOM
   1 C1            -0.5476     1.3622     0.4406 C.2     
   2 C2            -0.4147    -0.0265     0.3367 C.2     
   3 C3             3.6293     0.5517     4.3076 C.ar    
   4 C4             4.7047    -1.5360     3.7483 C.ar    
   5 C5             4.8185     1.0161     4.8304 C.ar    
   6 C6             5.8876    -1.0594     4.2743 C.ar    
   7 C7             0.5715     2.1383     0.3603 C.2     
   8 C8             2.0876    -2.5527    -0.7046 C.3     
   9 C9             3.5417    -2.1707     1.3135 C.3     
  10 C10            1.0615    -2.5808     1.5616 C.3     
  11 C11            3.2136    -0.3491    -0.3991 C.3     
  12 C12            2.2931    -1.2356     3.1999 C.2     
  13 C13            3.5644    -0.7312     3.7615 C.ar    
  14 C14            5.9453     0.2134     4.8137 C.ar    
  15 C15            0.8048    -0.5922     0.1329 C.2     
  16 C16            1.8140     1.5236     0.1548 C.2     
  17 C17            3.3264    -1.8429    -0.1570 C.3     
  18 C18            0.8737    -2.1015     0.1117 C.3     
  19 C19            7.2411     0.7275     5.3861 C.3     
  20 N20            2.2997    -1.9673     2.0681 N.am    
  21 N21            1.9038     0.1821    -0.0223 N.am    
  22 O22            1.2420    -0.9903     3.7590 O.2     
  23 O23            2.8275     2.2037     0.1350 O.2     
  24 F24            7.3132     0.4004     6.7445 F       
  25 F25            8.3155     0.1419     4.7078 F       
  26 F26            7.2976     2.1174     5.2375 F       
  27 H27           -1.5197     1.8124     0.5776 H       
  28 H28           -1.2889    -0.6552     0.4195 H       
  29 H29            2.7494     1.1777     4.3249 H       
  30 H30            4.6611    -2.5294     3.3269 H       
  31 H31            4.8701     2.0085     5.2532 H       
  32 H32            6.7707    -1.6811     4.2647 H       
  33 H33            0.5009     3.2120     0.4534 H       
  34 H34            1.9451    -2.2871    -1.7521 H       
  35 H35            2.2118    -3.6316    -0.6124 H       
  36 H36            3.8559    -3.2101     1.4091 H       
  37 H37            4.3196    -1.5227     1.7174 H       
  38 H38            0.2145    -2.2632     2.1698 H       
  39 H39            1.1493    -3.6670     1.5847 H       
  40 H40            3.9816     0.1613     0.1820 H       
  41 H41            3.3839    -0.1495    -1.4571 H       
  42 H42            4.1932    -2.1996    -0.7134 H       
  43 H43           -0.0402    -2.5127    -0.3169 H       
@<TRIPOS>BOND
   1    1    2 1
   2    1    7 2
   3    1   27 1
   4    2   15 2
   5    2   28 1
   6    3    5 ar
   7    3   13 ar
   8    3   29 1
   9    4    6 ar
  10    4   13 ar
  11    4   30 1
  12    5   14 ar
  13    5   31 1
  14    6   14 ar
  15    6   32 1
  16    7   16 1
  17    7   33 1
  18    8   17 1
  19    8   18 1
  20    8   34 1
  21    8   35 1
  22    9   17 1
  23    9   20 1
  24    9   36 1
  25    9   37 1
  26   10   18 1
  27   10   20 1
  28   10   38 1
  29   10   39 1
  30   11   17 1
  31   11   21 1
  32   11   40 1
  33   11   41 1
  34   12   13 1
  35   12   20 am
  36   12   22 2
  37   14   19 1
  38   15   18 1
  39   15   21 1
  40   16   21 am
  41   16   23 2
  42   17   42 1
  43   18   43 1
  44   19   24 1
  45   19   25 1
  46   19   26 1

#	End of record

