#	Name: ASD03331693
#	Creating user name:	WinNT
#	Creation time:	15. 06. 2019 20:39

#	Modifying user name:	WinNT
#	Modification time:	15. 06. 2019 20:39

#	Program:	/corina/corina34_cracker 3.40 0067  02.08.2006

@<TRIPOS>MOLECULE
ASD03331693
  44   47    0    0    0
SMALL
NO_CHARGES


@<TRIPOS>ATOM
   1 C1            -0.0166     1.3730     0.0096 C.ar    
   2 C2             0.0021    -0.0041     0.0020 C.ar    
   3 C3             1.2098    -0.6897    -0.0127 C.ar    
   4 C4             2.4057    -0.0061    -0.0200 C.ar    
   5 C5             1.1873     2.0799     0.0019 C.ar    
   6 C6             1.5311     3.5039     0.0063 C.2     
   7 C7             2.4101     1.3845    -0.0130 C.ar    
   8 N8             3.4136     2.3282    -0.0173 N.pl3   
   9 C9             2.8710     3.5842    -0.0061 C.2     
  10 S10            3.7943     5.0849    -0.0078 S.o2    
  11 O11            2.9455     6.0789     0.5495 O.2     
  12 O12            5.0741     4.7692     0.5230 O.2     
  13 N13            4.0362     5.5099    -1.5899 N.am    
  14 C14            2.8940     5.8650    -2.4358 C.3     
  15 C15            4.1443     6.4330    -5.9509 C.ar    
  16 C16            3.6929     5.8076    -4.8064 C.ar    
  17 C17            3.3869     6.5535    -3.6824 C.ar    
  18 C18            3.5313     7.9290    -3.6985 C.ar    
  19 C19            3.9815     8.5649    -4.8378 C.ar    
  20 C20            4.2912     7.8185    -5.9729 C.ar    
  21 C21            4.7766     8.4964    -7.2004 C.ar    
  22 C22            4.9235     9.8819    -7.2224 C.ar    
  23 C23            5.3753    10.5073    -8.3668 C.ar    
  24 C24            5.6816     9.7613    -9.4906 C.ar    
  25 C25            5.5372     8.3858    -9.4745 C.ar    
  26 C26            5.0925     7.7494    -8.3334 C.ar    
  27 Br27          -1.6256    -0.9666     0.0124 Br      
  28 H28           -0.9575     1.9032     0.0169 H       
  29 H29            1.2113    -1.7697    -0.0182 H       
  30 H30            3.3389    -0.5496    -0.0308 H       
  31 H31            0.8380     4.3321     0.0173 H       
  32 H32            4.3634     2.1316    -0.0263 H       
  33 H33            4.9341     5.5237    -1.9566 H       
  34 H34            2.3506     4.9610    -2.7108 H       
  35 H35            2.2310     6.5351    -1.8886 H       
  36 H36            4.3867     5.8493    -6.8267 H       
  37 H37            3.5786     4.7338    -4.7882 H       
  38 H38            3.2910     8.5066    -2.8182 H       
  39 H39            4.0933     9.6390    -4.8496 H       
  40 H40            4.6839    10.4653    -6.3457 H       
  41 H41            5.4896    11.5811    -8.3849 H       
  42 H42            6.0345    10.2548   -10.3841 H       
  43 H43            5.7775     7.8082   -10.3549 H       
  44 H44            4.9850     6.6748    -8.3201 H       
@<TRIPOS>BOND
   1    1    2 ar
   2    1    5 ar
   3    1   28 1
   4    2    3 ar
   5    2   27 1
   6    3    4 ar
   7    3   29 1
   8    4    7 ar
   9    4   30 1
  10    5    7 ar
  11    5    6 1
  12    6    9 2
  13    6   31 1
  14    7    8 1
  15    8    9 1
  16    8   32 1
  17    9   10 1
  18   10   11 2
  19   10   12 2
  20   10   13 am
  21   13   14 1
  22   13   33 1
  23   14   17 1
  24   14   34 1
  25   14   35 1
  26   15   16 ar
  27   15   20 ar
  28   15   36 1
  29   16   17 ar
  30   16   37 1
  31   17   18 ar
  32   18   19 ar
  33   18   38 1
  34   19   20 ar
  35   19   39 1
  36   20   21 1
  37   21   22 ar
  38   21   26 ar
  39   22   23 ar
  40   22   40 1
  41   23   24 ar
  42   23   41 1
  43   24   25 ar
  44   24   42 1
  45   25   26 ar
  46   25   43 1
  47   26   44 1

#	End of record

