#	Name: ASD00071084
#	Creating user name:	WinNT
#	Creation time:	15. 06. 2019 18:30

#	Modifying user name:	WinNT
#	Modification time:	15. 06. 2019 18:30

#	Program:	/corina/corina34_cracker 3.40 0067  02.08.2006

@<TRIPOS>MOLECULE
ASD00071084
  36   37    0    0    0
SMALL
NO_CHARGES


@<TRIPOS>ATOM
   1 N1            -0.0178     1.4648     0.0101 N.3     
   2 C2             0.0021    -0.0041     0.0020 C.3     
   3 C3            -1.4117    -0.5257     0.0127 C.ar    
   4 C4            -2.1435    -0.5636    -1.1597 C.ar    
   5 C5            -3.4402    -1.0419    -1.1499 C.ar    
   6 C6            -4.0053    -1.4830     0.0323 C.ar    
   7 C7            -3.2735    -1.4460     1.2042 C.ar    
   8 C8            -1.9749    -0.9715     1.1935 C.ar    
   9 N9            -1.5384    -0.0914    -2.4254 N.pl3   
  10 O10           -2.1830    -0.1248    -3.4582 O.2     
  11 O11           -0.3958     0.3305    -2.4339 O.2     
  12 C12            1.3463     2.0098    -0.0000 C.3     
  13 C13            1.2856     3.5156     0.0087 C.ar    
  14 C14            1.0606     4.1946     1.1976 C.ar    
  15 C15            1.0053     5.5806     1.2022 C.ar    
  16 C16            1.1743     6.2815     0.0236 C.ar    
  17 C17            1.3980     5.6026    -1.1597 C.ar    
  18 C18            1.4597     4.2211    -1.1660 C.ar    
  19 O19            0.8941     3.5029     2.3555 O.3     
  20 C20            0.6663     4.2676     3.5410 C.3     
  21 H21           -0.5563     1.8234    -0.7642 H       
  22 H22            0.5123    -0.3556    -0.8948 H       
  23 H23            0.5293    -0.3651     0.8851 H       
  24 H24           -4.0120    -1.0709    -2.0656 H       
  25 H25           -5.0188    -1.8561     0.0401 H       
  26 H26           -3.7151    -1.7901     2.1277 H       
  27 H27           -1.4018    -0.9460     2.1086 H       
  28 H28            1.8828     1.6627     0.8830 H       
  29 H29            1.8658     1.6723    -0.8968 H       
  30 H30            0.8299     6.1114     2.1263 H       
  31 H31            1.1314     7.3607     0.0267 H       
  32 H32            1.5292     6.1523    -2.0801 H       
  33 H33            1.6393     3.6932    -2.0909 H       
  34 H34            1.5144     4.9299     3.7147 H       
  35 H35           -0.2399     4.8614     3.4217 H       
  36 H36            0.5506     3.5948     4.3907 H       
@<TRIPOS>BOND
   1    1    2 1
   2    1   12 1
   3    1   21 1
   4    2    3 1
   5    2   22 1
   6    2   23 1
   7    3    4 ar
   8    3    8 ar
   9    4    5 ar
  10    4    9 1
  11    5    6 ar
  12    5   24 1
  13    6    7 ar
  14    6   25 1
  15    7    8 ar
  16    7   26 1
  17    8   27 1
  18    9   10 2
  19    9   11 2
  20   12   13 1
  21   12   28 1
  22   12   29 1
  23   13   14 ar
  24   13   18 ar
  25   14   15 ar
  26   14   19 1
  27   15   16 ar
  28   15   30 1
  29   16   17 ar
  30   16   31 1
  31   17   18 ar
  32   17   32 1
  33   18   33 1
  34   19   20 1
  35   20   34 1
  36   20   35 1
  37   20   36 1

#	End of record

