#	Name: ASD00740025
#	Creating user name:	WinNT
#	Creation time:	15. 06. 2019 18:37

#	Modifying user name:	WinNT
#	Modification time:	15. 06. 2019 18:37

#	Program:	/corina/corina34_cracker 3.40 0067  02.08.2006

@<TRIPOS>MOLECULE
ASD00740025
  74   79    0    0    0
SMALL
NO_CHARGES


@<TRIPOS>ATOM
   1 N1             0.1227     1.1781     0.2691 N.3     
   2 C2             5.2228    -1.3232    -0.8431 C.3     
   3 O3             6.6417     4.2839    -3.1897 O.2     
   4 C4            11.2571    10.1328    -3.7633 C.ar    
   5 N5             8.9229     8.7033    -3.5254 N.ar    
   6 O6             5.9610    13.1704    -4.0825 O.2     
   7 C7            10.0087    10.7912    -3.8310 C.ar    
   8 N8             9.7506    12.1003    -4.0055 N.2     
   9 C9             8.8480    10.0167    -3.7039 C.ar    
  10 N10            8.0908    13.7788    -4.2058 N.am    
  11 C11           10.0856     8.0744    -3.4597 C.ar    
  12 N12            7.7452     2.3858    -2.8548 N.am    
  13 C13           11.2840     8.7804    -3.5783 C.ar    
  14 N14            2.1973    -0.1252    -1.1810 N.3     
  15 C15            8.5178    12.4727    -4.0339 C.2     
  16 C16            6.7729    14.0606    -4.2202 C.2     
  17 C17            6.3083    15.4819    -4.4073 C.3     
  18 C18            4.7997    15.7368    -4.4144 C.3     
  19 C19            5.6432    16.1706    -3.2138 C.3     
  20 C20           10.1156     6.6054    -3.2592 C.ar    
  21 C21           11.3338     5.9489    -3.0844 C.ar    
  22 C22           11.3644     4.5805    -2.8974 C.ar    
  23 C23           10.1910     3.8538    -2.8812 C.ar    
  24 C24            8.9646     4.4994    -3.0551 C.ar    
  25 C25            8.9280     5.8803    -3.2393 C.ar    
  26 C26            7.7082     3.7205    -3.0382 C.2     
  27 C27            6.5538     1.6624    -2.7410 C.ar    
  28 C28            5.4411     2.0325    -3.4849 C.ar    
  29 C29            4.2659     1.3158    -3.3700 C.ar    
  30 C30            4.1965     0.2311    -2.5155 C.ar    
  31 C31            5.3029    -0.1401    -1.7732 C.ar    
  32 C32            6.4825     0.5685    -1.8877 C.ar    
  33 C33            2.9125    -0.5482    -2.3924 C.3     
  34 C34            0.8388    -0.6846    -1.1491 C.3     
  35 C35            0.1570    -0.2872     0.1623 C.3     
  36 C36            1.4812     1.7375     0.2372 C.3     
  37 C37            2.1631     1.3401    -1.0742 C.3     
  38 C38           -0.5925     1.6010     1.4805 C.3     
  39 C39           -0.3958     3.1037     1.6904 C.3     
  40 F40            6.4563    -1.5010    -0.2074 F       
  41 F41            4.2317    -1.0948     0.1176 F       
  42 F42            4.9060    -2.4720    -1.5760 F       
  43 S43            7.4539    11.0889    -3.8253 S.3     
  44 H44           12.1766    10.6908    -3.8610 H       
  45 H45            8.7403    14.4909    -4.3159 H       
  46 H46            8.5982     1.9270    -2.8019 H       
  47 H47           12.2283     8.2590    -3.5242 H       
  48 H48            6.9255    16.0958    -5.0632 H       
  49 H49            4.4245    16.5187    -5.0747 H       
  50 H50            4.1433    14.8765    -4.2837 H       
  51 H51            5.5417    15.5957    -2.2934 H       
  52 H52            5.8229    17.2379    -3.0843 H       
  53 H53           12.2554     6.5118    -3.0956 H       
  54 H54           12.3104     4.0772    -2.7629 H       
  55 H55           10.2212     2.7842    -2.7350 H       
  56 H56            7.9822     6.3851    -3.3701 H       
  57 H57            5.4945     2.8799    -4.1523 H       
  58 H58            3.4001     1.6034    -3.9481 H       
  59 H59            7.3475     0.2752    -1.3114 H       
  60 H60            3.1383    -1.6126    -2.3281 H       
  61 H61            2.2888    -0.3612    -3.2665 H       
  62 H62            0.2652    -0.2948    -1.9899 H       
  63 H63            0.8913    -1.7713    -1.2169 H       
  64 H64            0.7156    -0.7001     1.0023 H       
  65 H65           -0.8610    -0.6767     0.1755 H       
  66 H66            1.4287     2.8241     0.3050 H       
  67 H67            2.0549     1.3476     1.0780 H       
  68 H68            3.1810     1.7296    -1.0873 H       
  69 H69            1.6045     1.7529    -1.9142 H       
  70 H70           -1.6552     1.3858     1.3689 H       
  71 H71           -0.2006     1.0595     2.3415 H       
  72 H72           -0.9265     3.4176     2.5893 H       
  73 H73            0.6669     3.3190     1.8021 H       
  74 H74           -0.7877     3.6452     0.8294 H       
@<TRIPOS>BOND
   1    1   35 1
   2    1   36 1
   3    1   38 1
   4    2   31 1
   5    2   40 1
   6    2   41 1
   7    2   42 1
   8    3   26 2
   9    4    7 ar
  10    4   13 ar
  11    4   44 1
  12    5    9 ar
  13    5   11 ar
  14    6   16 2
  15    7    8 1
  16    7    9 ar
  17    8   15 2
  18    9   43 1
  19   10   15 1
  20   10   16 am
  21   10   45 1
  22   11   13 ar
  23   11   20 1
  24   12   26 am
  25   12   27 1
  26   12   46 1
  27   13   47 1
  28   14   33 1
  29   14   34 1
  30   14   37 1
  31   15   43 1
  32   16   17 1
  33   17   18 1
  34   17   19 1
  35   17   48 1
  36   18   19 1
  37   18   49 1
  38   18   50 1
  39   19   51 1
  40   19   52 1
  41   20   21 ar
  42   20   25 ar
  43   21   22 ar
  44   21   53 1
  45   22   23 ar
  46   22   54 1
  47   23   24 ar
  48   23   55 1
  49   24   25 ar
  50   24   26 1
  51   25   56 1
  52   27   28 ar
  53   27   32 ar
  54   28   29 ar
  55   28   57 1
  56   29   30 ar
  57   29   58 1
  58   30   31 ar
  59   30   33 1
  60   31   32 ar
  61   32   59 1
  62   33   60 1
  63   33   61 1
  64   34   35 1
  65   34   62 1
  66   34   63 1
  67   35   64 1
  68   35   65 1
  69   36   37 1
  70   36   66 1
  71   36   67 1
  72   37   68 1
  73   37   69 1
  74   38   39 1
  75   38   70 1
  76   38   71 1
  77   39   72 1
  78   39   73 1
  79   39   74 1

#	End of record

