#	Name: ASD00740008
#	Creating user name:	WinNT
#	Creation time:	15. 06. 2019 18:37

#	Modifying user name:	WinNT
#	Modification time:	15. 06. 2019 18:37

#	Program:	/corina/corina34_cracker 3.40 0067  02.08.2006

@<TRIPOS>MOLECULE
ASD00740008
  40   41    0    0    0
SMALL
NO_CHARGES


@<TRIPOS>ATOM
   1 C1            -0.0153     1.3773     0.0326 C.ar    
   2 C2            -1.0692     1.7997     0.8236 C.ar    
   3 C3            -2.2580     1.0967     0.8251 C.ar    
   4 C4            -2.3952    -0.0347     0.0319 C.ar    
   5 C5            -1.3361    -0.4565    -0.7609 C.ar    
   6 C6            -0.1513     0.2533    -0.7631 C.ar    
   7 N7            -3.5990    -0.7493     0.0319 N.am    
   8 C8            -4.7713    -0.0946     0.1484 C.2     
   9 N9            -5.9331    -0.7711     0.0542 N.am    
  10 C10           -7.1465    -0.0935     0.1748 C.2     
  11 N11           -8.3798    -0.6437     0.1014 N.pl3   
  12 N12           -9.3194     0.3805     0.2745 N.2     
  13 C13           -8.6753     1.5064     0.4459 C.2     
  14 C14           -7.3042     1.2406     0.3935 C.2     
  15 C15           -9.3043     2.8578     0.6675 C.3     
  16 C16           -9.1940     3.6879    -0.6130 C.3     
  17 C17          -10.7789     2.6800     1.0347 C.3     
  18 C18           -8.5785     3.5777     1.8060 C.3     
  19 C19           -8.6798    -2.0605    -0.1201 C.3     
  20 Cl20           1.4777     2.2631     0.0330 Cl      
  21 O21           -4.7806     1.1064     0.3384 O.2     
  22 H22           -0.9619     2.6796     1.4406 H       
  23 H23           -3.0802     1.4266     1.4429 H       
  24 H24           -1.4401    -1.3364    -1.3784 H       
  25 H25            0.6726    -0.0741    -1.3798 H       
  26 H26           -3.5894    -1.7156    -0.0519 H       
  27 H27           -5.9257    -1.7291    -0.0973 H       
  28 H28           -6.5111     1.9657     0.5014 H       
  29 H29           -9.7111     3.1750    -1.4240 H       
  30 H30           -9.6490     4.6653    -0.4527 H       
  31 H31           -8.1435     3.8145    -0.8746 H       
  32 H32          -10.8575     2.0887     1.9469 H       
  33 H33          -11.2338     3.6575     1.1949 H       
  34 H34          -11.2960     2.1672     0.2236 H       
  35 H35           -7.5280     3.7043     1.5444 H       
  36 H36           -9.0335     4.5551     1.9662 H       
  37 H37           -8.6571     2.9863     2.7182 H       
  38 H38           -8.7428    -2.5729     0.8399 H       
  39 H39           -9.6310    -2.1528    -0.6443 H       
  40 H40           -7.8889    -2.5098    -0.7206 H       
@<TRIPOS>BOND
   1    1    2 ar
   2    1   20 1
   3    1    6 ar
   4    2    3 ar
   5    2   22 1
   6    3    4 ar
   7    3   23 1
   8    4    5 ar
   9    4    7 1
  10    5    6 ar
  11    5   24 1
  12    6   25 1
  13    7    8 am
  14    7   26 1
  15    8    9 am
  16    8   21 2
  17    9   10 1
  18    9   27 1
  19   10   11 1
  20   10   14 2
  21   11   12 1
  22   11   19 1
  23   12   13 2
  24   13   14 1
  25   13   15 1
  26   14   28 1
  27   15   16 1
  28   15   17 1
  29   15   18 1
  30   16   29 1
  31   16   30 1
  32   16   31 1
  33   17   32 1
  34   17   33 1
  35   17   34 1
  36   18   35 1
  37   18   36 1
  38   18   37 1
  39   19   38 1
  40   19   39 1
  41   19   40 1

#	End of record

