#	Name: ASD01940014
#	Creating user name:	WinNT
#	Creation time:	15. 06. 2019 20:11

#	Modifying user name:	WinNT
#	Modification time:	15. 06. 2019 20:11

#	Program:	/corina/corina34_cracker 3.40 0067  02.08.2006

@<TRIPOS>MOLECULE
ASD01940014
  50   52    0    0    0
SMALL
NO_CHARGES


@<TRIPOS>ATOM
   1 C1             0.3803     1.4204    -0.0029 C.ar    
   2 C2             0.2255     0.1571    -0.5590 C.ar    
   3 C3            -1.0020    -0.4731    -0.5092 C.ar    
   4 C4            -2.0809     0.1555     0.0956 C.ar    
   5 C5            -1.9273     1.4177     0.6510 C.ar    
   6 C6            -0.6989     2.0466     0.6075 C.ar    
   7 N7             1.6242     2.0596    -0.0525 N.pl3   
   8 C8             1.6906     3.4330    -0.2037 C.2     
   9 C9             2.8241     4.2314    -0.1480 C.2     
  10 C10            2.5618     5.5886    -0.3410 C.2     
  11 N11            1.3237     5.9237    -0.5427 N.2     
  12 S12            0.3865     4.5124    -0.5081 S.3     
  13 O13            3.5547     6.5152    -0.3183 O.3     
  14 C14            4.1747     3.6978     0.0921 C.2     
  15 N15            4.6528     3.5855     1.3811 N.pl3   
  16 N16            4.9210     3.3303    -0.9159 N.2     
  17 C17            5.9970     3.0544     1.6202 C.3     
  18 C18            7.0214     4.1839     1.4950 C.3     
  19 C19            6.0665     2.4564     3.0268 C.3     
  20 O20            5.8921     3.4935     3.9943 O.3     
  21 O21           -3.2895    -0.4655     0.1438 O.3     
  22 C22           -4.2926     0.1431     0.8292 C.ar    
  23 C23           -4.9507     1.2324     0.2766 C.ar    
  24 C24           -5.9702     1.8494     0.9757 C.ar    
  25 C25           -6.3347     1.3823     2.2248 C.ar    
  26 C26           -5.6804     0.2968     2.7779 C.ar    
  27 C27           -4.6644    -0.3273     2.0809 C.ar    
  28 C28           -6.6851     3.0329     0.3763 C.3     
  29 F29           -7.7818     2.5868    -0.3690 F       
  30 F30           -7.1291     3.8769     1.3999 F       
  31 F31           -5.8080     3.7337    -0.4585 F       
  32 H32            1.0651    -0.3321    -1.0305 H       
  33 H33           -1.1225    -1.4554    -0.9416 H       
  34 H34           -2.7677     1.9065     1.1213 H       
  35 H35           -0.5794     3.0289     1.0401 H       
  36 H36            2.4399     1.5395     0.0192 H       
  37 H37            3.9569     6.6820    -1.1818 H       
  38 H38            4.0989     3.8582     2.1293 H       
  39 H39            5.8110     2.9787    -0.7577 H       
  40 H40            6.2179     2.2805     0.8851 H       
  41 H41            8.0215     3.7888     1.6729 H       
  42 H42            6.9719     4.6099     0.4929 H       
  43 H43            6.8005     4.9579     2.2301 H       
  44 H44            5.2781     1.7130     3.1449 H       
  45 H45            7.0373     1.9828     3.1727 H       
  46 H46            5.9248     3.1861     4.9106 H       
  47 H47           -4.6660     1.5978    -0.6990 H       
  48 H48           -7.1317     1.8663     2.7697 H       
  49 H49           -5.9672    -0.0661     3.7538 H       
  50 H50           -4.1537    -1.1750     2.5133 H       
@<TRIPOS>BOND
   1    1    2 ar
   2    1    7 1
   3    1    6 ar
   4    2    3 ar
   5    2   32 1
   6    3    4 ar
   7    3   33 1
   8    4    5 ar
   9    4   21 1
  10    5    6 ar
  11    5   34 1
  12    6   35 1
  13    7    8 1
  14    7   36 1
  15    8    9 2
  16    8   12 1
  17    9   10 1
  18    9   14 1
  19   10   11 2
  20   10   13 1
  21   11   12 1
  22   13   37 1
  23   14   15 1
  24   14   16 2
  25   15   17 1
  26   15   38 1
  27   16   39 1
  28   17   18 1
  29   17   19 1
  30   17   40 1
  31   18   41 1
  32   18   42 1
  33   18   43 1
  34   19   20 1
  35   19   44 1
  36   19   45 1
  37   20   46 1
  38   21   22 1
  39   22   23 ar
  40   22   27 ar
  41   23   24 ar
  42   23   47 1
  43   24   25 ar
  44   24   28 1
  45   25   26 ar
  46   25   48 1
  47   26   27 ar
  48   26   49 1
  49   27   50 1
  50   28   29 1
  51   28   30 1
  52   28   31 1

#	End of record

