#	Name: ASD04590503
#	Creating user name:	WinNT
#	Creation time:	15. 06. 2019 20:50

#	Modifying user name:	WinNT
#	Modification time:	15. 06. 2019 20:50

#	Program:	/corina/corina34_cracker 3.40 0067  02.08.2006

@<TRIPOS>MOLECULE
ASD04590503
  68   73    0    0    0
SMALL
NO_CHARGES


@<TRIPOS>ATOM
   1 C1            -0.0167     1.3832     0.0096 C.ar    
   2 C2             0.0021    -0.0041     0.0020 C.ar    
   3 C3             2.4020     0.0223    -0.0204 C.ar    
   4 C4             2.3769     1.4283    -0.0130 C.ar    
   5 C5             1.1624     2.0986     0.0022 C.ar    
   6 N6             3.7040    -0.3552    -0.0357 N.2     
   7 C7             4.4709     0.7083    -0.0383 C.2     
   8 N8             3.6969     1.8375    -0.0246 N.pl3   
   9 C9             5.9482     0.6906    -0.0536 C.2     
  10 C10            6.7657    -0.4632    -0.0683 C.2     
  11 C11            8.0580    -0.0539    -0.0799 C.2     
  12 N12            8.0646     1.3050    -0.0728 N.pl3   
  13 N13            6.7360     1.7480    -0.0617 N.2     
  14 N14            6.3189    -1.7942    -0.0702 N.am    
  15 C15            7.2110    -2.8044    -0.0851 C.2     
  16 O16            8.4031    -2.5630    -0.0969 O.2     
  17 C17            1.1969    -0.6870    -0.0126 C.ar    
  18 C18            6.7430    -4.1987    -0.0870 C.2     
  19 C19            7.6504    -5.1514    -0.1017 C.2     
  20 C20           -1.2962    -0.7693     0.0104 C.3     
  21 N21           -1.7313    -1.0105    -1.3718 N.3     
  22 C22           -2.8598    -1.9518    -1.4122 C.3     
  23 C23           -0.6168    -1.4976    -2.1976 C.3     
  24 C24           -1.0982    -1.6784    -3.6396 C.3     
  25 O25           -2.2148    -2.5718    -3.6557 O.3     
  26 C26           -3.3187    -2.1280    -2.8622 C.3     
  27 C27            7.3115    -6.6160    -0.1236 C.3     
  28 N28            5.8753    -6.7827     0.1413 N.am    
  29 C29            4.9498    -5.8633    -0.5427 C.3     
  30 C30            5.2629    -4.4408    -0.0660 C.3     
  31 S31            5.3198    -7.9577     1.1676 S.o2    
  32 C32            5.2585    -7.2538     2.7818 C.ar    
  33 C33            4.1092    -6.6197     3.2156 C.ar    
  34 C34            6.3577    -7.3411     3.6156 C.ar    
  35 C35            6.3104    -6.7903     4.8822 C.ar    
  36 C36            5.1617    -6.1503     5.3158 C.ar    
  37 C37            4.0597    -6.0677     4.4815 C.ar    
  38 F38            5.1143    -5.6115     6.5537 F       
  39 O39            3.9742    -8.2159     0.7911 O.2     
  40 O40            6.3228    -8.9635     1.2064 O.2     
  41 H41           -0.9614     1.9066     0.0170 H       
  42 H42            1.1403     3.1784     0.0079 H       
  43 H43            4.0155     2.7537    -0.0229 H       
  44 H44            8.9277    -0.6940    -0.0925 H       
  45 H45            8.8528     1.8703    -0.0779 H       
  46 H46            5.3683    -1.9867    -0.0608 H       
  47 H47            1.2037    -1.7669    -0.0178 H       
  48 H48            8.6922    -4.8667    -0.0983 H       
  49 H49           -1.1524    -1.7232     0.5177 H       
  50 H50           -2.0561    -0.1898     0.5346 H       
  51 H51           -2.5450    -2.9149    -1.0105 H       
  52 H52           -3.6829    -1.5591    -0.8152 H       
  53 H53            0.1975    -0.7734    -2.1738 H       
  54 H54           -0.2661    -2.4535    -1.8084 H       
  55 H55           -1.3986    -0.7129    -4.0468 H       
  56 H56           -0.2912    -2.0935    -4.2434 H       
  57 H57           -4.1177    -2.8683    -2.9036 H       
  58 H58           -3.6838    -1.1756    -3.2467 H       
  59 H59            7.5518    -7.0310    -1.1025 H       
  60 H60            7.8861    -7.1345     0.6439 H       
  61 H61            5.0906    -5.9336    -1.6213 H       
  62 H62            3.9213    -6.1182    -0.2872 H       
  63 H63            4.8842    -4.3087     0.9475 H       
  64 H64            4.7752    -3.7238    -0.7264 H       
  65 H65            3.2497    -6.5554     2.5647 H       
  66 H66            7.2536    -7.8403     3.2772 H       
  67 H67            7.1691    -6.8592     5.5336 H       
  68 H68            3.1632    -5.5686     4.8186 H       
@<TRIPOS>BOND
   1    1    2 ar
   2    1    5 ar
   3    1   41 1
   4    2   17 ar
   5    2   20 1
   6    3    4 ar
   7    3    6 1
   8    3   17 ar
   9    4    5 ar
  10    4    8 1
  11    5   42 1
  12    6    7 2
  13    7    8 1
  14    7    9 1
  15    8   43 1
  16    9   10 1
  17    9   13 2
  18   10   11 2
  19   10   14 1
  20   11   12 1
  21   11   44 1
  22   12   13 1
  23   12   45 1
  24   14   15 am
  25   14   46 1
  26   15   16 2
  27   15   18 1
  28   17   47 1
  29   18   19 2
  30   18   30 1
  31   19   27 1
  32   19   48 1
  33   20   21 1
  34   20   49 1
  35   20   50 1
  36   21   22 1
  37   21   23 1
  38   22   26 1
  39   22   51 1
  40   22   52 1
  41   23   24 1
  42   23   53 1
  43   23   54 1
  44   24   25 1
  45   24   55 1
  46   24   56 1
  47   25   26 1
  48   26   57 1
  49   26   58 1
  50   27   28 1
  51   27   59 1
  52   27   60 1
  53   28   29 1
  54   28   31 am
  55   29   30 1
  56   29   61 1
  57   29   62 1
  58   30   63 1
  59   30   64 1
  60   31   32 1
  61   31   39 2
  62   31   40 2
  63   32   33 ar
  64   32   34 ar
  65   33   37 ar
  66   33   65 1
  67   34   35 ar
  68   34   66 1
  69   35   36 ar
  70   35   67 1
  71   36   37 ar
  72   36   38 1
  73   37   68 1

#	End of record

