#	Name: ASD02448075
#	Creating user name:	WinNT
#	Creation time:	15. 06. 2019 20:21

#	Modifying user name:	WinNT
#	Modification time:	15. 06. 2019 20:21

#	Program:	/corina/corina34_cracker 3.40 0067  02.08.2006

@<TRIPOS>MOLECULE
ASD02448075
  78   84    0    0    0
SMALL
NO_CHARGES


@<TRIPOS>ATOM
   1 C1             3.3180    -7.4083    -1.0997 C.ar    
   2 C2             2.8026    -6.2967    -0.4638 C.ar    
   3 C3             2.1987    -5.2903    -1.2054 C.ar    
   4 C4             2.1125    -5.4016    -2.5865 C.ar    
   5 C5             2.6277    -6.5129    -3.2231 C.ar    
   6 C6             3.2324    -7.5198    -2.4816 C.ar    
   7 N7             3.7547    -8.6453    -3.1260 N.am    
   8 C8             4.8251    -9.5365    -2.6602 C.3     
   9 C9             5.0895   -10.6295    -3.6449 C.2     
  10 N10            4.3205   -10.5947    -4.7424 N.am    
  11 S11            3.2997    -9.2878    -4.5969 S.o2    
  12 O12            5.9341   -11.4811    -3.4652 O.2     
  13 O13            1.9822    -9.7994    -4.4497 O.2     
  14 O14            3.6785    -8.3471    -5.5923 O.2     
  15 N15            1.6748    -4.1603    -0.5585 N.pl3   
  16 C16            0.7437    -4.1584     0.4450 C.2     
  17 C17            2.0020    -2.8654    -0.8079 C.2     
  18 N18            1.3135    -2.0956    -0.0119 N.2     
  19 C19            0.5270    -2.8581     0.7745 C.2     
  20 C20           -0.4087    -2.3648     1.8147 C.ar    
  21 C21           -0.5335    -0.9958     2.0515 C.ar    
  22 C22           -1.1701    -3.2670     2.5545 C.ar    
  23 C23           -2.0393    -2.8032     3.5213 C.ar    
  24 C24           -2.1557    -1.4442     3.7568 C.ar    
  25 C25           -1.4060    -0.5424     3.0210 C.ar    
  26 Cl26          -3.2514    -0.8680     4.9739 Cl      
  27 Cl27           0.4066     0.1355     1.1296 Cl      
  28 C28            2.9983    -2.3956    -1.8363 C.3     
  29 C29            4.3370    -2.1821    -1.1780 C.ar    
  30 C30            5.2085    -3.2460    -1.0281 C.ar    
  31 C31            4.6918    -0.9219    -0.7310 C.ar    
  32 C32            5.9163    -0.7201    -0.1278 C.ar    
  33 C33            6.7969    -1.7897     0.0308 C.ar    
  34 C34            6.4356    -3.0567    -0.4261 C.ar    
  35 C35            8.1137    -1.5796     0.6773 C.2     
  36 C36            8.4093    -2.1869     1.8881 C.2     
  37 C37            9.0911    -0.7617     0.0672 C.2     
  38 C38           10.2860    -0.5814     0.6699 C.2     
  39 N39           10.5658    -1.1761     1.8592 N.am    
  40 C40            9.6651    -1.9667     2.4714 C.2     
  41 C41           11.8731    -0.9573     2.4832 C.3     
  42 C42           11.6809    -0.3100     3.8561 C.3     
  43 C43           13.0462    -0.0815     4.5078 C.3     
  44 C44           13.7637    -1.4228     4.6723 C.3     
  45 C45           13.9559    -2.0701     3.2994 C.3     
  46 C46           12.5906    -2.2986     2.6477 C.3     
  47 O47            9.9403    -2.4894     3.5400 O.2     
  48 H48            3.7918    -8.1891    -0.5232 H       
  49 H49            2.8689    -6.2101     0.6106 H       
  50 H50            1.6420    -4.6188    -3.1629 H       
  51 H51            2.5602    -6.5995    -4.2975 H       
  52 H52            5.7366    -8.9558    -2.5182 H       
  53 H53            4.5330    -9.9776    -1.7072 H       
  54 H54            4.3512   -11.2188    -5.4843 H       
  55 H55            0.2726    -5.0229     0.8889 H       
  56 H56           -1.0807    -4.3276     2.3717 H       
  57 H57           -2.6300    -3.5021     4.0949 H       
  58 H58           -1.5004     0.5170     3.2085 H       
  59 H59            3.0943    -3.1477    -2.6193 H       
  60 H60            2.6547    -1.4580    -2.2733 H       
  61 H61            4.9278    -4.2267    -1.3827 H       
  62 H62            4.0091    -0.0942    -0.8547 H       
  63 H63            6.1924     0.2642     0.2204 H       
  64 H64            7.1134    -3.8889    -0.3057 H       
  65 H65            7.6826    -2.8201     2.3751 H       
  66 H66            8.8834    -0.2827    -0.8781 H       
  67 H67           11.0301     0.0444     0.1997 H       
  68 H68           12.4714    -0.3001     1.8522 H       
  69 H69           11.1697     0.6455     3.7390 H       
  70 H70           11.0826    -0.9672     4.4871 H       
  71 H71           13.6446     0.5757     3.8768 H       
  72 H72           12.9093     0.3797     5.4860 H       
  73 H73           14.7364    -1.2600     5.1366 H       
  74 H74           13.1654    -2.0800     5.3033 H       
  75 H75           14.5543    -1.4129     2.6684 H       
  76 H76           14.4671    -3.0256     3.4165 H       
  77 H77           11.9922    -2.9558     3.2787 H       
  78 H78           12.7275    -2.7597     1.6695 H       
@<TRIPOS>BOND
   1    1    2 ar
   2    1    6 ar
   3    1   48 1
   4    2    3 ar
   5    2   49 1
   6    3    4 ar
   7    3   15 1
   8    4    5 ar
   9    4   50 1
  10    5    6 ar
  11    5   51 1
  12    6    7 1
  13    7    8 1
  14    7   11 am
  15    8    9 1
  16    8   52 1
  17    8   53 1
  18    9   10 am
  19    9   12 2
  20   10   11 am
  21   10   54 1
  22   11   13 2
  23   11   14 2
  24   15   16 1
  25   15   17 1
  26   16   19 2
  27   16   55 1
  28   17   18 2
  29   17   28 1
  30   18   19 1
  31   19   20 1
  32   20   21 ar
  33   20   22 ar
  34   21   27 1
  35   21   25 ar
  36   22   23 ar
  37   22   56 1
  38   23   24 ar
  39   23   57 1
  40   24   25 ar
  41   24   26 1
  42   25   58 1
  43   28   29 1
  44   28   59 1
  45   28   60 1
  46   29   30 ar
  47   29   31 ar
  48   30   34 ar
  49   30   61 1
  50   31   32 ar
  51   31   62 1
  52   32   33 ar
  53   32   63 1
  54   33   34 ar
  55   33   35 1
  56   34   64 1
  57   35   36 2
  58   35   37 1
  59   36   40 1
  60   36   65 1
  61   37   38 2
  62   37   66 1
  63   38   39 1
  64   38   67 1
  65   39   40 am
  66   39   41 1
  67   40   47 2
  68   41   42 1
  69   41   46 1
  70   41   68 1
  71   42   43 1
  72   42   69 1
  73   42   70 1
  74   43   44 1
  75   43   71 1
  76   43   72 1
  77   44   45 1
  78   44   73 1
  79   44   74 1
  80   45   46 1
  81   45   75 1
  82   45   76 1
  83   46   77 1
  84   46   78 1

#	End of record

