#	Name: ASD01720078
#	Creating user name:	WinNT
#	Creation time:	15. 06. 2019 19:23

#	Modifying user name:	WinNT
#	Modification time:	15. 06. 2019 19:23

#	Program:	/corina/corina34_cracker 3.40 0067  02.08.2006

@<TRIPOS>MOLECULE
ASD01720078
  69   71    0    0    0
SMALL
NO_CHARGES


@<TRIPOS>ATOM
   1 C1            -0.0101     1.5289     0.0834 C.3     
   2 C2             0.0123    -0.0012     0.0975 C.3     
   3 C3             0.7934    -0.4841     1.3228 C.3     
   4 C4             2.2078     0.1009     1.2797 C.3     
   5 C5             2.1217     1.6280     1.2314 C.3     
   6 N6             1.3661     2.0396     0.0414 N.3     
   7 C7             1.3802     3.4162    -0.1037 C.ar    
   8 C8             2.6011     4.0871    -0.1640 C.ar    
   9 C9             2.6177     5.4478    -0.3079 C.ar    
  10 C10            1.3939     6.1288    -0.3907 C.ar    
  11 C11            0.1990     5.3913    -0.3232 C.ar    
  12 N12            0.2333     4.0746    -0.1886 N.ar    
  13 C13           -1.4209    -0.5326     0.1634 C.3     
  14 C14           -1.4051    -2.0355     0.0536 C.2     
  15 O15           -0.3552    -2.6215    -0.0653 O.2     
  16 O16           -2.5574    -2.7231     0.0877 O.3     
  17 N17           -1.0174     6.0433    -0.4024 N.pl3   
  18 C18            1.3615     7.5914    -0.5453 C.2     
  19 O19            0.3019     8.1606    -0.7267 O.2     
  20 N20            2.5060     8.3008    -0.4860 N.am    
  21 C21            2.4738     9.7573    -0.6400 C.3     
  22 C22            2.1733    10.4066     0.7124 C.3     
  23 C23            3.8308    10.2464    -1.1502 C.3     
  24 C24            3.7972    11.7675    -1.3110 C.3     
  25 C25            3.4967    12.4168     0.0414 C.3     
  26 C26            2.1397    11.9278     0.5516 C.3     
  27 C27           -2.2607     5.2703    -0.4566 C.3     
  28 C28           -3.4523     6.2263    -0.5402 C.3     
  29 C29           -4.7508     5.4190    -0.5968 C.3     
  30 C30           -5.9465     6.3727    -0.5546 C.3     
  31 C31           -4.7909     4.6079    -1.8935 C.3     
  32 H32           -0.5533     1.8761    -0.7955 H       
  33 H33           -0.5053     1.8931     0.9836 H       
  34 H34            0.4951    -0.3664    -0.8090 H       
  35 H35            0.2893    -0.1519     2.2303 H       
  36 H36            0.8490    -1.5727     1.3135 H       
  37 H37            2.7553    -0.2047     2.1713 H       
  38 H38            2.7251    -0.2627     0.3919 H       
  39 H39            1.6165     1.9918     2.1261 H       
  40 H40            3.1269     2.0472     1.1862 H       
  41 H41            3.5277     3.5364    -0.0972 H       
  42 H42            3.5528     5.9859    -0.3563 H       
  43 H43           -1.8727    -0.2423     1.1120 H       
  44 H44           -2.0017    -0.1143    -0.6587 H       
  45 H45           -2.4967    -3.6853     0.0137 H       
  46 H46           -1.0477     7.0126    -0.4221 H       
  47 H47            3.3510     7.8470    -0.3414 H       
  48 H48            1.6972    10.0301    -1.3545 H       
  49 H49            1.2065    10.0582     1.0759 H       
  50 H50            2.9499    10.1339     1.4270 H       
  51 H51            4.6074     9.9736    -0.4357 H       
  52 H52            4.0449     9.7838    -2.1137 H       
  53 H53            4.7639    12.1159    -1.6745 H       
  54 H54            3.0205    12.0403    -2.0255 H       
  55 H55            4.2733    12.1441     0.7560 H       
  56 H56            3.4727    13.5005    -0.0731 H       
  57 H57            1.3631    12.2005    -0.1629 H       
  58 H58            1.9256    12.3903     1.5151 H       
  59 H59           -2.2497     4.6257    -1.3356 H       
  60 H60           -2.3478     4.6588     0.4414 H       
  61 H61           -3.4633     6.8709     0.3387 H       
  62 H62           -3.3653     6.8379    -1.4382 H       
  63 H63           -4.7954     4.7423     0.2565 H       
  64 H64           -5.9018     7.0494    -1.4079 H       
  65 H65           -6.8715     5.7975    -0.5949 H       
  66 H66           -5.9179     6.9505     0.3692 H       
  67 H67           -3.9391     3.9285    -1.9236 H       
  68 H68           -5.7159     4.0328    -1.9339 H       
  69 H69           -4.7463     5.2846    -2.7469 H       
@<TRIPOS>BOND
   1    1    2 1
   2    1    6 1
   3    1   32 1
   4    1   33 1
   5    2    3 1
   6    2   13 1
   7    2   34 1
   8    3    4 1
   9    3   35 1
  10    3   36 1
  11    4    5 1
  12    4   37 1
  13    4   38 1
  14    5    6 1
  15    5   39 1
  16    5   40 1
  17    6    7 1
  18    7    8 ar
  19    7   12 ar
  20    8    9 ar
  21    8   41 1
  22    9   10 ar
  23    9   42 1
  24   10   11 ar
  25   10   18 1
  26   11   12 ar
  27   11   17 1
  28   13   14 1
  29   13   43 1
  30   13   44 1
  31   14   15 2
  32   14   16 1
  33   16   45 1
  34   17   27 1
  35   17   46 1
  36   18   19 2
  37   18   20 am
  38   20   21 1
  39   20   47 1
  40   21   23 1
  41   21   22 1
  42   21   48 1
  43   22   26 1
  44   22   49 1
  45   22   50 1
  46   23   24 1
  47   23   51 1
  48   23   52 1
  49   24   25 1
  50   24   53 1
  51   24   54 1
  52   25   26 1
  53   25   55 1
  54   25   56 1
  55   26   57 1
  56   26   58 1
  57   27   28 1
  58   27   59 1
  59   27   60 1
  60   28   29 1
  61   28   61 1
  62   28   62 1
  63   29   30 1
  64   29   31 1
  65   29   63 1
  66   30   64 1
  67   30   65 1
  68   30   66 1
  69   31   67 1
  70   31   68 1
  71   31   69 1

#	End of record

