#	Name: ASD04590440
#	Creating user name:	WinNT
#	Creation time:	15. 06. 2019 20:50

#	Modifying user name:	WinNT
#	Modification time:	15. 06. 2019 20:50

#	Program:	/corina/corina34_cracker 3.40 0067  02.08.2006

@<TRIPOS>MOLECULE
ASD04590440
  62   66    0    0    0
SMALL
NO_CHARGES


@<TRIPOS>ATOM
   1 C1            -0.0167     1.3832     0.0096 C.ar    
   2 C2             0.0021    -0.0041     0.0020 C.ar    
   3 C3             2.4020     0.0223    -0.0207 C.ar    
   4 C4             2.3769     1.4283    -0.0129 C.ar    
   5 C5             1.1624     2.0986     0.0022 C.ar    
   6 N6             3.7040    -0.3552    -0.0356 N.2     
   7 C7             4.4709     0.7083    -0.0375 C.2     
   8 N8             3.6969     1.8375    -0.0238 N.pl3   
   9 C9             5.9482     0.6906    -0.0526 C.2     
  10 C10            6.7657    -0.4631    -0.0678 C.2     
  11 C11            8.0579    -0.0539    -0.0785 C.2     
  12 N12            8.0646     1.3050    -0.0704 N.pl3   
  13 N13            6.7360     1.7480    -0.0600 N.2     
  14 N14            6.3188    -1.7944    -0.0713 N.am    
  15 C15            7.2108    -2.8046    -0.0864 C.2     
  16 O16            8.4027    -2.5633    -0.0970 O.2     
  17 C17            6.7413    -4.2032    -0.0900 C.ar    
  18 C18            1.1969    -0.6870    -0.0130 C.ar    
  19 C19            6.5297    -4.8774     1.1175 C.ar    
  20 C20           -1.2962    -0.7693     0.0108 C.3     
  21 N21           -1.7317    -1.0105    -1.3713 N.3     
  22 C22           -2.8594    -1.9511    -1.4113 C.3     
  23 C23           -0.6147    -1.4822    -2.2005 C.3     
  24 C24           -1.0621    -1.5480    -3.6647 C.3     
  25 N25           -2.2833    -2.3639    -3.7439 N.am    
  26 C26           -3.3988    -2.0361    -2.8431 C.3     
  27 C27            6.0898    -6.1876     1.1049 C.ar    
  28 C28            5.8593    -6.8324    -0.0968 C.ar    
  29 C29            6.0659    -6.1734    -1.2951 C.ar    
  30 C30            6.4996    -4.8610    -1.3009 C.ar    
  31 F31            6.7008    -4.2191    -2.4725 F       
  32 F32            6.7551    -4.2497     2.2924 F       
  33 S33           -2.3994    -3.6180    -4.8191 S.o2    
  34 O34           -3.7941    -3.7451    -5.0599 O.2     
  35 O35           -1.5044    -3.2665    -5.8654 O.2     
  36 C36           -1.7774    -5.0564    -3.9056 C.3     
  37 C37           -1.8344    -6.2942    -4.8032 C.3     
  38 H38           -0.9614     1.9066     0.0169 H       
  39 H39            1.1403     3.1784     0.0079 H       
  40 H40            4.0155     2.7537    -0.0220 H       
  41 H41            8.9276    -0.6941    -0.0908 H       
  42 H42            8.8529     1.8702    -0.0747 H       
  43 H43            5.3681    -1.9869    -0.0628 H       
  44 H44            1.2037    -1.7669    -0.0185 H       
  45 H45           -1.1522    -1.7232     0.5181 H       
  46 H46           -2.0559    -0.1898     0.5353 H       
  47 H47           -2.5225    -2.9368    -1.0904 H       
  48 H48           -3.6485    -1.6014    -0.7455 H       
  49 H49            0.2242    -0.7925    -2.1072 H       
  50 H50           -0.3090    -2.4744    -1.8687 H       
  51 H51           -1.2695    -0.5421    -4.0298 H       
  52 H52           -0.2769    -2.0046    -4.2673 H       
  53 H53           -4.1585    -2.8154    -2.9025 H       
  54 H54           -3.8308    -1.0771    -3.1292 H       
  55 H55            5.9259    -6.7096     2.0361 H       
  56 H56            5.5163    -7.8564    -0.0995 H       
  57 H57            5.8838    -6.6844    -2.2290 H       
  58 H58           -0.7465    -4.8756    -3.6012 H       
  59 H59           -2.3939    -5.2199    -3.0217 H       
  60 H60           -2.8653    -6.4751    -5.1076 H       
  61 H61           -1.2179    -6.1308    -5.6871 H       
  62 H62           -1.4606    -7.1586    -4.2543 H       
@<TRIPOS>BOND
   1    1    2 ar
   2    1    5 ar
   3    1   38 1
   4    2   18 ar
   5    2   20 1
   6    3    4 ar
   7    3    6 1
   8    3   18 ar
   9    4    5 ar
  10    4    8 1
  11    5   39 1
  12    6    7 2
  13    7    8 1
  14    7    9 1
  15    8   40 1
  16    9   10 1
  17    9   13 2
  18   10   11 2
  19   10   14 1
  20   11   12 1
  21   11   41 1
  22   12   13 1
  23   12   42 1
  24   14   15 am
  25   14   43 1
  26   15   16 2
  27   15   17 1
  28   17   19 ar
  29   17   30 ar
  30   18   44 1
  31   19   27 ar
  32   19   32 1
  33   20   21 1
  34   20   45 1
  35   20   46 1
  36   21   22 1
  37   21   23 1
  38   22   26 1
  39   22   47 1
  40   22   48 1
  41   23   24 1
  42   23   49 1
  43   23   50 1
  44   24   25 1
  45   24   51 1
  46   24   52 1
  47   25   26 1
  48   25   33 am
  49   26   53 1
  50   26   54 1
  51   27   28 ar
  52   27   55 1
  53   28   29 ar
  54   28   56 1
  55   29   30 ar
  56   29   57 1
  57   30   31 1
  58   33   34 2
  59   33   36 1
  60   33   35 2
  61   36   37 1
  62   36   58 1
  63   36   59 1
  64   37   60 1
  65   37   61 1
  66   37   62 1

#	End of record

