#	Name: ASD01882520
#	Creating user name:	WinNT
#	Creation time:	15. 06. 2019 19:44

#	Modifying user name:	WinNT
#	Modification time:	15. 06. 2019 19:44

#	Program:	/corina/corina34_cracker 3.40 0067  02.08.2006

@<TRIPOS>MOLECULE
ASD01882520
  54   58    0    0    0
SMALL
NO_CHARGES


@<TRIPOS>ATOM
   1 C1             0.7333     1.4211     1.0819 C.2     
   2 C2             0.7681     0.0140     1.0975 C.2     
   3 C3             1.2054    -0.6541    -0.0130 C.2     
   4 C4             1.6132     0.0750    -1.1522 C.2     
   5 C5             1.5735     1.4209    -1.1486 C.2     
   6 N6             1.1382     2.1012    -0.0457 N.pl3   
   7 N7             0.5246     3.5072     1.4695 N.2     
   8 N8             0.3679     2.3314     1.9678 N.2     
   9 C9             0.9897     3.4259     0.2469 C.2     
  10 N10            1.2490    -2.0473    -0.0204 N.pl3   
  11 C11            2.5301    -2.7555    -0.1466 C.3     
  12 C12            2.4337    -3.7449    -1.3123 C.3     
  13 C13            1.2270    -4.6617    -1.0995 C.3     
  14 C14           -0.0534    -3.8239    -1.0700 C.3     
  15 C15            0.0153    -2.8354     0.1040 C.3     
  16 C16            1.1488    -5.6585    -2.2271 C.ar    
  17 C17            1.2175    -7.0180    -1.9580 C.ar    
  18 C18            1.1454    -7.9329    -2.9980 C.ar    
  19 C19            1.0053    -7.4888    -4.2988 C.ar    
  20 C20            0.9376    -6.1338    -4.5643 C.ar    
  21 C21            1.0031    -5.2198    -3.5286 C.ar    
  22 O22            1.3557    -7.4523    -0.6777 O.3     
  23 C23            1.4196    -8.8654    -0.4754 C.3     
  24 O24            1.2700     4.4677    -0.5775 O.3     
  25 C25            1.0390     5.7813    -0.0646 C.3     
  26 C26            1.4096     6.8166    -1.1284 C.3     
  27 C27            1.1224     8.2862    -0.8142 C.3     
  28 C28            2.5631     7.7712    -0.8136 C.3     
  29 Cl29           0.2629    -0.8622     2.5085 Cl      
  30 H30            1.9590    -0.4498    -2.0305 H       
  31 H31            1.8884     1.9679    -2.0250 H       
  32 H32            3.3268    -2.0376    -0.3416 H       
  33 H33            2.7408    -3.2968     0.7757 H       
  34 H34            2.3135    -3.1960    -2.2463 H       
  35 H35            3.3429    -4.3445    -1.3565 H       
  36 H36            1.3360    -5.1918    -0.1534 H       
  37 H37           -0.1502    -3.2743    -2.0063 H       
  38 H38           -0.9145    -4.4798    -0.9419 H       
  39 H39            0.0251    -3.3832     1.0463 H       
  40 H40           -0.8478    -2.1703     0.0745 H       
  41 H41            1.1989    -8.9916    -2.7912 H       
  42 H42            0.9491    -8.2008    -5.1090 H       
  43 H43            0.8288    -5.7886    -5.5819 H       
  44 H44            0.9451    -4.1619    -3.7381 H       
  45 H45            0.5035    -9.3270    -0.8440 H       
  46 H46            2.2743    -9.2717    -1.0163 H       
  47 H47            1.5297    -9.0755     0.5885 H       
  48 H48           -0.0137     5.8894     0.1965 H       
  49 H49            1.6515     5.9375     0.8234 H       
  50 H50            1.2933     6.4909    -2.1621 H       
  51 H51            0.8175     8.9274    -1.6412 H       
  52 H52            0.6695     8.5154     0.1504 H       
  53 H53            3.0580     7.6615     0.1514 H       
  54 H54            3.2061     8.0735    -1.6402 H       
@<TRIPOS>BOND
   1    1    2 1
   2    1    6 1
   3    1    8 2
   4    2    3 2
   5    2   29 1
   6    3    4 1
   7    3   10 1
   8    4    5 2
   9    4   30 1
  10    5    6 1
  11    5   31 1
  12    6    9 1
  13    7    8 1
  14    7    9 2
  15    9   24 1
  16   10   11 1
  17   10   15 1
  18   11   12 1
  19   11   32 1
  20   11   33 1
  21   12   13 1
  22   12   34 1
  23   12   35 1
  24   13   14 1
  25   13   16 1
  26   13   36 1
  27   14   15 1
  28   14   37 1
  29   14   38 1
  30   15   39 1
  31   15   40 1
  32   16   17 ar
  33   16   21 ar
  34   17   18 ar
  35   17   22 1
  36   18   19 ar
  37   18   41 1
  38   19   20 ar
  39   19   42 1
  40   20   21 ar
  41   20   43 1
  42   21   44 1
  43   22   23 1
  44   23   45 1
  45   23   46 1
  46   23   47 1
  47   24   25 1
  48   25   26 1
  49   25   48 1
  50   25   49 1
  51   26   27 1
  52   26   28 1
  53   26   50 1
  54   27   28 1
  55   27   51 1
  56   27   52 1
  57   28   53 1
  58   28   54 1

#	End of record

