#	Name: ASD01028072
#	Creating user name:	WinNT
#	Creation time:	15. 06. 2019 18:56

#	Modifying user name:	WinNT
#	Modification time:	15. 06. 2019 18:56

#	Program:	/corina/corina34_cracker 3.40 0067  02.08.2006

@<TRIPOS>MOLECULE
ASD01028072
  57   61    0    0    0
SMALL
NO_CHARGES


@<TRIPOS>ATOM
   1 C1            -0.0187     1.5267     0.0104 C.3     
   2 C2             0.0021    -0.0041     0.0020 C.3     
   3 C3            -1.4105    -0.5329     0.2633 C.3     
   4 C4             2.0555     1.8320     1.3657 C.3     
   5 C5             1.4121     2.0713    -0.0003 C.3     
   6 N6             2.4340     3.1381     1.9715 N.3     
   7 N7             0.1689     1.8415     4.3710 N.pl3   
   8 C8             0.8852     2.8933     4.9611 C.ar    
   9 C9             1.4127     3.8555     4.1054 C.ar    
  10 C10            1.2367     3.7208     2.6187 C.3     
  11 C11            1.1180     2.9841     6.3303 C.ar    
  12 C12            1.7912     4.0857     6.8397 C.ar    
  13 C13            2.2584     5.0770     5.9905 C.ar    
  14 C14            2.0744     4.9548     4.6278 C.ar    
  15 O15           -1.3575    -1.6328     1.1728 O.3     
  16 C16           -1.6473    -1.3841     2.4745 C.ar    
  17 C17           -1.0323    -0.3221     3.0867 C.ar    
  18 C18           -1.3226    -0.0426     4.4285 C.ar    
  19 C19           -0.7167     1.0541     5.1017 C.ar    
  20 N20           -1.0398     1.2715     6.3552 N.ar    
  21 O21            0.8210     2.1366     7.3479 O.3     
  22 C22            1.1429     2.8032     8.5725 C.3     
  23 O23            1.8734     3.9745     8.1922 O.3     
  24 C24           -2.5453    -2.1888     3.1814 C.ar    
  25 C25           -2.8444    -1.9377     4.5018 C.ar    
  26 C26           -2.2366    -0.8522     5.1439 C.ar    
  27 N27           -2.4858    -0.5381     6.4236 N.ar    
  28 C28           -1.9008     0.4899     6.9882 C.ar    
  29 C29            3.4514     2.8377     3.0155 C.3     
  30 O30           -3.1347    -3.2401     2.5532 O.3     
  31 C31           -4.0440    -4.0290     3.3230 C.3     
  32 Br32           3.1435     6.5906     6.6982 Br      
  33 H33           -0.5463     1.8841    -0.8750 H       
  34 H34           -0.5332     1.8785     0.9036 H       
  35 H35            0.3476    -0.3586    -0.9693 H       
  36 H36            0.6746    -0.3645     0.7789 H       
  37 H37           -2.0215     0.2619     0.6908 H       
  38 H38           -1.8523    -0.8620    -0.6779 H       
  39 H39            1.3630     1.3232     2.0256 H       
  40 H40            2.9617     1.2394     1.2464 H       
  41 H41            1.9895     1.5551    -0.7693 H       
  42 H42            1.3947     3.1388    -0.2188 H       
  43 H43            0.2961     1.6552     3.4228 H       
  44 H44            1.0714     4.7130     2.1873 H       
  45 H45            0.3744     3.0982     2.3951 H       
  46 H46            2.4456     5.7217     3.9632 H       
  47 H47           -0.3339     0.2854     2.5326 H       
  48 H48            0.2306     3.0824     9.0990 H       
  49 H49            1.7597     2.1605     9.1996 H       
  50 H50           -3.5396    -2.5690     5.0364 H       
  51 H51           -2.1320     0.7087     8.0201 H       
  52 H52            4.3140     2.3566     2.5545 H       
  53 H53            3.7655     3.7652     3.4943 H       
  54 H54            3.0198     2.1714     3.7624 H       
  55 H55           -4.4422    -4.8327     2.7035 H       
  56 H56           -3.5206    -4.4553     4.1789 H       
  57 H57           -4.8629    -3.4010     3.6738 H       
@<TRIPOS>BOND
   1    1    2 1
   2    1    5 1
   3    1   33 1
   4    1   34 1
   5    2    3 1
   6    2   35 1
   7    2   36 1
   8    3   15 1
   9    3   37 1
  10    3   38 1
  11    4    5 1
  12    4    6 1
  13    4   39 1
  14    4   40 1
  15    5   41 1
  16    5   42 1
  17    6   29 1
  18    6   10 1
  19    7    8 1
  20    7   19 1
  21    7   43 1
  22    8    9 ar
  23    8   11 ar
  24    9   10 1
  25    9   14 ar
  26   10   44 1
  27   10   45 1
  28   11   12 ar
  29   11   21 1
  30   12   13 ar
  31   12   23 1
  32   13   14 ar
  33   13   32 1
  34   14   46 1
  35   15   16 1
  36   16   17 ar
  37   16   24 ar
  38   17   18 ar
  39   17   47 1
  40   18   19 ar
  41   18   26 ar
  42   19   20 ar
  43   20   28 ar
  44   21   22 1
  45   22   23 1
  46   22   48 1
  47   22   49 1
  48   24   25 ar
  49   24   30 1
  50   25   26 ar
  51   25   50 1
  52   26   27 ar
  53   27   28 ar
  54   28   51 1
  55   29   52 1
  56   29   53 1
  57   29   54 1
  58   30   31 1
  59   31   55 1
  60   31   56 1
  61   31   57 1

#	End of record

