#	Name: ASD01913081
#	Creating user name:	WinNT
#	Creation time:	15. 06. 2019 20:00

#	Modifying user name:	WinNT
#	Modification time:	15. 06. 2019 20:00

#	Program:	/corina/corina34_cracker 3.40 0067  02.08.2006

@<TRIPOS>MOLECULE
ASD01913081
  38   40    0    0    0
SMALL
NO_CHARGES


@<TRIPOS>ATOM
   1 N1            -0.0169     1.3965     0.0097 N.2     
   2 N2             0.0021    -0.0041     0.0020 N.pl3   
   3 C3             1.2284     1.8226     0.0001 C.2     
   4 C4             2.0722     0.6950    -0.0140 C.2     
   5 C5             1.2909    -0.4070    -0.0125 C.2     
   6 C6             1.7727    -1.8348    -0.0243 C.3     
   7 C7             1.6660     3.2408     0.0031 C.ar    
   8 C8             0.8239    -2.7002     0.8075 C.3     
   9 C9             1.8034    -2.3508    -1.4643 C.3     
  10 C10            0.7204     4.2636     0.0177 C.ar    
  11 C11            1.1317     5.5809     0.0209 C.ar    
  12 C12            2.4827     5.8868     0.0092 C.ar    
  13 C13            3.4266     4.8725    -0.0053 C.ar    
  14 C14            3.0241     3.5529    -0.0028 C.ar    
  15 F15            2.8811     7.1777     0.0115 F       
  16 C16            0.1096     6.6883     0.0367 C.3     
  17 C17            2.2926    -3.8005    -1.4763 C.3     
  18 C18            1.3437    -4.6658    -0.6446 C.3     
  19 C19            1.3131    -4.1498     0.7955 C.3     
  20 H20           -0.7755    -0.5839     0.0063 H       
  21 H21            3.1521     0.7089    -0.0249 H       
  22 H22            2.7753    -1.8835     0.4005 H       
  23 H23            0.8020    -2.3326     1.8334 H       
  24 H24           -0.1788    -2.6515     0.3827 H       
  25 H25            0.8007    -2.3022    -1.8891 H       
  26 H26            2.4793    -1.7343    -2.0569 H       
  27 H27           -0.3331     4.0260     0.0261 H       
  28 H28            4.4789     5.1153    -0.0147 H       
  29 H29            3.7605     2.7629    -0.0142 H       
  30 H30           -0.1270     6.9497     1.0681 H       
  31 H31            0.5123     7.5617    -0.4763 H       
  32 H32           -0.7956     6.3544    -0.4704 H       
  33 H33            2.3144    -4.1681    -2.5022 H       
  34 H34            3.2952    -3.8491    -1.0515 H       
  35 H35            0.3411    -4.6172    -1.0694 H       
  36 H36            1.6923    -5.6986    -0.6531 H       
  37 H37            2.3157    -4.1984     1.2203 H       
  38 H38            0.6371    -4.7663     1.3880 H       
@<TRIPOS>BOND
   1    1    2 1
   2    1    3 2
   3    2    5 1
   4    2   20 1
   5    3    4 1
   6    3    7 1
   7    4    5 2
   8    4   21 1
   9    5    6 1
  10    6    8 1
  11    6    9 1
  12    6   22 1
  13    7   10 ar
  14    7   14 ar
  15    8   19 1
  16    8   23 1
  17    8   24 1
  18    9   17 1
  19    9   25 1
  20    9   26 1
  21   10   11 ar
  22   10   27 1
  23   11   12 ar
  24   11   16 1
  25   12   13 ar
  26   12   15 1
  27   13   14 ar
  28   13   28 1
  29   14   29 1
  30   16   30 1
  31   16   31 1
  32   16   32 1
  33   17   18 1
  34   17   33 1
  35   17   34 1
  36   18   19 1
  37   18   35 1
  38   18   36 1
  39   19   37 1
  40   19   38 1

#	End of record

