#	Name: ASD03092089
#	Creating user name:	WinNT
#	Creation time:	15. 06. 2019 20:31

#	Modifying user name:	WinNT
#	Modification time:	15. 06. 2019 20:31

#	Program:	/corina/corina34_cracker 3.40 0067  02.08.2006

@<TRIPOS>MOLECULE
ASD03092089
  56   58    0    0    0
SMALL
NO_CHARGES


@<TRIPOS>ATOM
   1 N1             0.1037     1.6579     1.4968 N.pl3   
   2 C2             0.0103     0.3128     1.2951 C.2     
   3 C3            -1.2757     0.0434     0.9218 C.2     
   4 C4            -1.9771     1.2553     0.8971 C.2     
   5 N5            -1.1553     2.2181     1.2462 N.2     
   6 N6            -3.3277     1.4128     0.5630 N.pl3   
   7 C7            -3.8777     2.6930     0.4623 C.ar    
   8 C8            -5.2174     2.9006     0.7668 C.ar    
   9 C9            -5.7610     4.1667     0.6672 C.ar    
  10 C10           -4.9746     5.2295     0.2653 C.ar    
  11 C11           -3.0849     3.7609     0.0634 C.ar    
  12 C12            1.1013    -0.6738     1.4519 C.ar    
  13 C13            1.3058     2.3870     1.9086 C.3     
  14 C14            1.8211    -0.7659     2.6484 C.ar    
  15 C15            2.8303    -1.7006     2.7514 C.ar    
  16 N16            3.1192    -2.4997     1.7421 N.ar    
  17 C17            2.4655    -2.4459     0.5970 C.ar    
  18 C18            1.4384    -1.5450     0.4095 C.ar    
  19 C19            2.8429    -3.3855    -0.5191 C.3     
  20 C20           -3.6355     5.0282    -0.0402 C.ar    
  21 C21            0.6979    -1.4914    -0.9018 C.3     
  22 C22            2.1215     2.7391     0.6913 C.2     
  23 N23            3.2787     3.4163     0.8284 N.am    
  24 O24            1.7366     2.4131    -0.4116 O.2     
  25 C25            4.0717     3.7585    -0.3550 C.3     
  26 C26            3.7436     3.8101     2.1606 C.3     
  27 C27           -7.2145     4.3892     0.9970 C.3     
  28 F28           -7.3428     4.6950     2.3561 F       
  29 F29           -7.7092     5.4506     0.2315 F       
  30 F30           -7.9409     3.2286     0.7095 F       
  31 O31           -2.8637     6.0745    -0.4358 O.3     
  32 C32           -1.4793     5.8078    -0.6690 C.3     
  33 H33           -1.6794    -0.9305     0.6872 H       
  34 H34           -3.8815     0.6330     0.4014 H       
  35 H35           -5.8342     2.0716     1.0812 H       
  36 H36           -5.4025     6.2181     0.1884 H       
  37 H37           -2.0422     3.6032    -0.1696 H       
  38 H38            1.0166     3.3002     2.4287 H       
  39 H39            1.8995     1.7617     2.5754 H       
  40 H40            1.5902    -0.1147     3.4785 H       
  41 H41            3.3917    -1.7791     3.6706 H       
  42 H42            2.2592    -4.3022    -0.4354 H       
  43 H43            2.6381    -2.9107    -1.4787 H       
  44 H44            3.9045    -3.6233    -0.4506 H       
  45 H45           -0.1327    -2.1969    -0.8792 H       
  46 H46            0.3143    -0.4837    -1.0616 H       
  47 H47            1.3763    -1.7548    -1.7133 H       
  48 H48            3.7585     4.7317    -0.7332 H       
  49 H49            5.1274     3.7955    -0.0866 H       
  50 H50            3.9189     3.0030    -1.1257 H       
  51 H51            3.0284     3.4710     2.9100 H       
  52 H52            4.7157     3.3568     2.3549 H       
  53 H53            3.8328     4.8954     2.2082 H       
  54 H54           -1.0383     5.3682     0.2256 H       
  55 H55           -1.3786     5.1129    -1.5027 H       
  56 H56           -0.9651     6.7388    -0.9077 H       
@<TRIPOS>BOND
   1    1    2 1
   2    1   13 1
   3    1    5 1
   4    2    3 2
   5    2   12 1
   6    3    4 1
   7    3   33 1
   8    4    5 2
   9    4    6 1
  10    6    7 1
  11    6   34 1
  12    7    8 ar
  13    7   11 ar
  14    8    9 ar
  15    8   35 1
  16    9   10 ar
  17    9   27 1
  18   10   20 ar
  19   10   36 1
  20   11   20 ar
  21   11   37 1
  22   12   14 ar
  23   12   18 ar
  24   13   22 1
  25   13   38 1
  26   13   39 1
  27   14   15 ar
  28   14   40 1
  29   15   16 ar
  30   15   41 1
  31   16   17 ar
  32   17   18 ar
  33   17   19 1
  34   18   21 1
  35   19   42 1
  36   19   43 1
  37   19   44 1
  38   20   31 1
  39   21   45 1
  40   21   46 1
  41   21   47 1
  42   22   23 am
  43   22   24 2
  44   23   25 1
  45   23   26 1
  46   25   48 1
  47   25   49 1
  48   25   50 1
  49   26   51 1
  50   26   52 1
  51   26   53 1
  52   27   28 1
  53   27   29 1
  54   27   30 1
  55   31   32 1
  56   32   54 1
  57   32   55 1
  58   32   56 1

#	End of record

