#	Name: ASD02508433
#	Creating user name:	WinNT
#	Creation time:	15. 06. 2019 20:24

#	Modifying user name:	WinNT
#	Modification time:	15. 06. 2019 20:24

#	Program:	/corina/corina34_cracker 3.40 0067  02.08.2006

@<TRIPOS>MOLECULE
ASD02508433
  42   44    0    0    0
SMALL
NO_CHARGES


@<TRIPOS>ATOM
   1 C1             0.1126     1.4028     0.4410 C.2     
   2 C2             0.1192     0.0049     0.4663 C.2     
   3 C3             1.3534    -0.4142     0.0729 C.2     
   4 N4             2.0963     0.6962    -0.1907 N.pl3   
   5 N5             1.2905     1.8165     0.0495 N.2     
   6 C6             3.4252     0.7147    -0.6235 C.ar    
   7 C7             4.0581     1.9316    -0.8534 C.ar    
   8 N8             4.0712    -0.4254    -0.8056 N.ar    
   9 C9             5.3256    -0.4531    -1.2130 C.ar    
  10 C10            6.0145     0.7169    -1.4655 C.ar    
  11 C11            5.3751     1.9351    -1.2821 C.ar    
  12 N12            1.7779    -1.7345    -0.0388 N.am    
  13 S13            0.6851    -2.9705     0.1049 S.o2    
  14 C14           -0.4222    -2.8490    -1.2603 C.ar    
  15 C15           -0.0810    -3.4058    -2.4786 C.ar    
  16 C16           -0.9497    -3.3105    -3.5497 C.ar    
  17 C17           -2.1599    -2.6588    -3.4022 C.ar    
  18 C18           -2.5014    -2.1028    -2.1836 C.ar    
  19 C19           -1.6346    -2.2019    -1.1114 C.ar    
  20 Cl20           3.2089     3.4256    -0.6070 Cl      
  21 O21            1.4160    -4.1755    -0.0772 O.2     
  22 O22           -0.0815    -2.6949     1.2692 O.2     
  23 C23           -3.8205    -1.3918    -2.0230 C.3     
  24 C24           -0.5774    -3.9167    -4.8782 C.3     
  25 C25            7.4474     0.6715    -1.9301 C.3     
  26 F26            7.8625    -0.6606    -2.0325 F       
  27 F27            7.5520     1.2899    -3.1806 F       
  28 F28            8.2579     1.3430    -1.0085 F       
  29 H29           -0.7251     2.0346     0.6969 H       
  30 H30           -0.7078    -0.6298     0.7485 H       
  31 H31            5.8203    -1.4032    -1.3506 H       
  32 H32            5.8914     2.8643    -1.4729 H       
  33 H33            2.7138    -1.9310    -0.2008 H       
  34 H34            0.8644    -3.9150    -2.5938 H       
  35 H35           -2.8383    -2.5837    -4.2392 H       
  36 H36           -1.9015    -1.7675    -0.1593 H       
  37 H37           -4.5811    -2.1048    -1.7048 H       
  38 H38           -3.7214    -0.6073    -1.2728 H       
  39 H39           -4.1130    -0.9492    -2.9751 H       
  40 H40           -0.9295    -4.9474    -4.9188 H       
  41 H41           -1.0394    -3.3430    -5.6816 H       
  42 H42            0.5062    -3.8981    -4.9951 H       
@<TRIPOS>BOND
   1    1    2 1
   2    1    5 2
   3    1   29 1
   4    2    3 2
   5    2   30 1
   6    3    4 1
   7    3   12 1
   8    4    5 1
   9    4    6 1
  10    6    7 ar
  11    6    8 ar
  12    7   20 1
  13    7   11 ar
  14    8    9 ar
  15    9   10 ar
  16    9   31 1
  17   10   11 ar
  18   10   25 1
  19   11   32 1
  20   12   13 am
  21   12   33 1
  22   13   14 1
  23   13   21 2
  24   13   22 2
  25   14   15 ar
  26   14   19 ar
  27   15   16 ar
  28   15   34 1
  29   16   17 ar
  30   16   24 1
  31   17   18 ar
  32   17   35 1
  33   18   19 ar
  34   18   23 1
  35   19   36 1
  36   23   37 1
  37   23   38 1
  38   23   39 1
  39   24   40 1
  40   24   41 1
  41   24   42 1
  42   25   26 1
  43   25   27 1
  44   25   28 1

#	End of record

