#	Name: ASD01812124
#	Creating user name:	WinNT
#	Creation time:	15. 06. 2019 19:28

#	Modifying user name:	WinNT
#	Modification time:	15. 06. 2019 19:28

#	Program:	/corina/corina34_cracker 3.40 0067  02.08.2006

@<TRIPOS>MOLECULE
ASD01812124
  52   57    0    0    0
SMALL
NO_CHARGES


@<TRIPOS>ATOM
   1 C1             0.0797     1.4527     0.4318 C.ar    
   2 C2             0.0729     0.0616     0.4281 C.ar    
   3 C3             1.2283    -0.6453     0.2752 C.ar    
   4 C4             2.4456     0.0352     0.1190 C.ar    
   5 C5             2.4487     1.4515     0.1233 C.ar    
   6 C6             1.2453     2.1461     0.2823 C.ar    
   7 C7             3.6571    -0.6694    -0.0416 C.ar    
   8 C8             4.8332    -0.0150    -0.1931 C.ar    
   9 C9             4.8915     1.3873    -0.1960 C.ar    
  10 C10            3.7200     2.1505    -0.0399 C.ar    
  11 C11            6.1608     2.1073    -0.3604 C.2     
  12 N12            6.1164     3.4598    -0.3510 N.am    
  13 C13            4.9356     4.1087    -0.1940 C.2     
  14 N14            3.7996     3.4916    -0.0472 N.2     
  15 O15            7.2131     1.5101    -0.4996 O.2     
  16 C16            3.6424    -2.1763    -0.0442 C.3     
  17 C17            3.3865    -2.6737    -1.4435 C.ar    
  18 C18            4.4488    -2.7877    -2.3312 C.ar    
  19 C19            4.2294    -3.2420    -3.6147 C.ar    
  20 C20            2.9469    -3.5808    -4.0057 C.ar    
  21 C21            1.8594    -3.4703    -3.1157 C.ar    
  22 C22            2.1187    -3.0085    -1.8123 C.ar    
  23 C23            7.3529     4.2289    -0.5110 C.3     
  24 C24            7.5719     5.1087     0.7236 C.3     
  25 C25            8.8244     5.9647     0.5114 C.3     
  26 C26            8.6586     6.7894    -0.7677 C.3     
  27 O27            8.4276     5.9122    -1.8719 O.3     
  28 C28            7.2440     5.1207    -1.7506 C.3     
  29 O29            7.7480     4.2811     1.8752 O.3     
  30 S30            2.2175    -4.1870    -5.4942 S.3     
  31 N31            0.7569    -4.2448    -4.9312 N.2     
  32 N32            0.7293    -3.8546    -3.7213 N.2     
  33 H33           -0.8494     1.9904     0.5501 H       
  34 H34           -0.8617    -0.4661     0.5484 H       
  35 H35            1.2070    -1.7250     0.2747 H       
  36 H36            1.2386     3.2261     0.2865 H       
  37 H37            5.7437    -0.5832    -0.3135 H       
  38 H38            4.9386     5.1887    -0.1908 H       
  39 H39            4.6056    -2.5496     0.3036 H       
  40 H40            2.8538    -2.5331     0.6182 H       
  41 H41            5.4466    -2.5202    -2.0162 H       
  42 H42            5.0520    -3.3319    -4.3086 H       
  43 H43            1.3088    -2.9116    -1.1044 H       
  44 H44            8.1951     3.5466    -0.6261 H       
  45 H45            6.7074     5.7568     0.8676 H       
  46 H46            8.9566     6.6338     1.3616 H       
  47 H47            9.6962     5.3174     0.4170 H       
  48 H48            7.8107     7.4655    -0.6570 H       
  49 H49            9.5645     7.3685    -0.9468 H       
  50 H50            7.1308     4.4977    -2.6378 H       
  51 H51            6.3776     5.7749    -1.6528 H       
  52 H52            7.8919     4.7734     2.6950 H       
@<TRIPOS>BOND
   1    1    2 ar
   2    1    6 ar
   3    1   33 1
   4    2    3 ar
   5    2   34 1
   6    3    4 ar
   7    3   35 1
   8    4    5 ar
   9    4    7 ar
  10    5    6 ar
  11    5   10 ar
  12    6   36 1
  13    7    8 ar
  14    7   16 1
  15    8    9 ar
  16    8   37 1
  17    9   10 ar
  18    9   11 1
  19   10   14 1
  20   11   12 am
  21   11   15 2
  22   12   13 1
  23   12   23 1
  24   13   14 2
  25   13   38 1
  26   16   17 1
  27   16   39 1
  28   16   40 1
  29   17   18 ar
  30   17   22 ar
  31   18   19 ar
  32   18   41 1
  33   19   20 ar
  34   19   42 1
  35   20   21 ar
  36   20   30 1
  37   21   22 ar
  38   21   32 1
  39   22   43 1
  40   23   24 1
  41   23   28 1
  42   23   44 1
  43   24   25 1
  44   24   29 1
  45   24   45 1
  46   25   26 1
  47   25   46 1
  48   25   47 1
  49   26   27 1
  50   26   48 1
  51   26   49 1
  52   27   28 1
  53   28   50 1
  54   28   51 1
  55   29   52 1
  56   30   31 1
  57   31   32 2

#	End of record

