#	Name: ASD02030673
#	Creating user name:	WinNT
#	Creation time:	15. 06. 2019 20:15

#	Modifying user name:	WinNT
#	Modification time:	15. 06. 2019 20:15

#	Program:	/corina/corina34_cracker 3.40 0067  02.08.2006

@<TRIPOS>MOLECULE
ASD02030673
  47   49    0    0    0
SMALL
NO_CHARGES


@<TRIPOS>ATOM
   1 N1            -0.2316     1.6887    -0.1690 N.am    
   2 C2            -0.2810     0.3419    -0.1556 C.2     
   3 C3            -1.5741    -0.3474     0.0210 C.ar    
   4 O4             0.7398    -0.3053    -0.2890 O.2     
   5 C5            -1.6275    -1.7436     0.0352 C.ar    
   6 C6            -2.8360    -2.3830     0.2007 C.ar    
   7 C7            -4.0015    -1.6415     0.3530 C.ar    
   8 C8            -3.9528    -0.2526     0.3390 C.ar    
   9 C9            -2.7475     0.3945     0.1803 C.ar    
  10 O10           -5.1909    -2.2755     0.5155 O.3     
  11 C11           -6.0958    -2.1421    -0.4747 C.2     
  12 N12           -7.3347    -2.6523    -0.3287 N.am    
  13 S13           -5.6713    -1.3247    -1.9178 S.2     
  14 C14            1.0046     2.3432    -0.2129 C.ar    
  15 C15            2.1049     1.7952     0.4235 C.ar    
  16 C16            3.3341     2.4371     0.3858 C.ar    
  17 C17            3.4803     3.6212    -0.2806 C.ar    
  18 C18            2.3844     4.1943    -0.9314 C.ar    
  19 C19            1.1360     3.5498    -0.9039 C.ar    
  20 C20           -7.6979    -3.3518     0.9062 C.3     
  21 C21           -8.3181    -2.5074    -1.4048 C.3     
  22 C22           -8.2151    -3.7028    -2.3542 C.3     
  23 C23           -8.2697    -2.3494     1.9109 C.3     
  24 C24            2.1919     5.4166    -1.7153 C.2     
  25 C25            0.9037     5.4423    -2.0928 C.2     
  26 N26            0.2570     4.3345    -1.6180 N.pl3   
  27 H27           -1.0530     2.2044    -0.1523 H       
  28 H28           -0.7223    -2.3206    -0.0838 H       
  29 H29           -2.8781    -3.4621     0.2118 H       
  30 H30           -4.8608     0.3201     0.4574 H       
  31 H31           -2.7104     1.4738     0.1699 H       
  32 H32            2.0055     0.8600     0.9544 H       
  33 H33            4.1831     1.9973     0.8879 H       
  34 H34            4.4404     4.1154    -0.3009 H       
  35 H35           -8.4466    -4.1127     0.6860 H       
  36 H36           -6.8121    -3.8254     1.3296 H       
  37 H37           -9.3203    -2.4675    -0.9782 H       
  38 H38           -8.1209    -1.5878    -1.9558 H       
  39 H39           -8.9468    -3.5949    -3.1549 H       
  40 H40           -7.2129    -3.7427    -2.7808 H       
  41 H41           -8.4123    -4.6224    -1.8032 H       
  42 H42           -8.5399    -2.8699     2.8297 H       
  43 H43           -7.5209    -1.5885     2.1311 H       
  44 H44           -9.1554    -1.8758     1.4875 H       
  45 H45            2.9436     6.1570    -1.9458 H       
  46 H46            0.4467     6.2205    -2.6859 H       
  47 H47           -0.6807     4.1321    -1.7617 H       
@<TRIPOS>BOND
   1    1    2 am
   2    1   14 1
   3    1   27 1
   4    2    3 1
   5    2    4 2
   6    3    5 ar
   7    3    9 ar
   8    5    6 ar
   9    5   28 1
  10    6    7 ar
  11    6   29 1
  12    7    8 ar
  13    7   10 1
  14    8    9 ar
  15    8   30 1
  16    9   31 1
  17   10   11 1
  18   11   12 am
  19   11   13 2
  20   12   20 1
  21   12   21 1
  22   14   15 ar
  23   14   19 ar
  24   15   16 ar
  25   15   32 1
  26   16   17 ar
  27   16   33 1
  28   17   18 ar
  29   17   34 1
  30   18   19 ar
  31   18   24 1
  32   19   26 1
  33   20   23 1
  34   20   35 1
  35   20   36 1
  36   21   22 1
  37   21   37 1
  38   21   38 1
  39   22   39 1
  40   22   40 1
  41   22   41 1
  42   23   42 1
  43   23   43 1
  44   23   44 1
  45   24   25 2
  46   24   45 1
  47   25   26 1
  48   25   46 1
  49   26   47 1

#	End of record

