#	Name: ASD03910038
#	Creating user name:	WinNT
#	Creation time:	15. 06. 2019 20:47

#	Modifying user name:	WinNT
#	Modification time:	15. 06. 2019 20:47

#	Program:	/corina/corina34_cracker 3.40 0067  02.08.2006

@<TRIPOS>MOLECULE
ASD03910038
  68   70    0    0    0
SMALL
NO_CHARGES


@<TRIPOS>ATOM
   1 C1            -0.2117    -0.2725    -0.3295 C.ar    
   2 C2             0.8045     0.2987     0.4144 C.ar    
   3 C3             0.5640     1.4401     1.1572 C.ar    
   4 C4            -0.6927     2.0129     1.1585 C.ar    
   5 C5            -1.7153     1.4417     0.4125 C.ar    
   6 C6            -1.4690     0.2990    -0.3373 C.ar    
   7 N7            -2.9897     2.0195     0.4117 N.am    
   8 C8            -3.1218     3.3600     0.4593 C.2     
   9 O9            -2.1404     4.0621     0.5812 O.2     
  10 C10           -4.3614     5.4858     0.4396 C.ar    
  11 C11           -4.1929     6.2257    -0.7162 C.ar    
  12 C12           -4.0813     7.6009    -0.6474 C.ar    
  13 C13           -4.1385     8.2395     0.5829 C.ar    
  14 C14           -4.3077     7.4949     1.7412 C.ar    
  15 C15           -4.4186     6.1199     1.6669 C.ar    
  16 O16           -4.0286     9.5922     0.6533 O.3     
  17 C17           -4.2057    10.1915     1.9385 C.3     
  18 C18           -3.1590     9.6654     2.8865 C.2     
  19 C19            0.0548    -1.5163    -1.1376 C.3     
  20 C20            1.6743     2.0592     1.9665 C.3     
  21 O21           -2.3419     8.8569     2.4997 O.2     
  22 N22           -3.1309    10.0934     4.1642 N.am    
  23 C23           -4.4890     3.9863     0.3610 C.3     
  24 C24           -4.0662    11.7102     1.8166 C.3     
  25 C25           -5.5973     9.8484     2.4739 C.3     
  26 C26           -2.1134     9.5820     5.0858 C.3     
  27 C27           -0.8505    10.3910     4.9389 C.2     
  28 O28           -0.8050    11.3014     4.1458 O.2     
  29 O29            0.2239    10.1003     5.6892 O.3     
  30 C30           -2.6256     9.6925     6.5233 C.3     
  31 C31           -3.8171     8.7875     6.7030 C.ar    
  32 C32           -3.6363     7.4799     7.1132 C.ar    
  33 C33           -4.7293     6.6498     7.2779 C.ar    
  34 C34           -6.0032     7.1274     7.0330 C.ar    
  35 C35           -6.1841     8.4354     6.6237 C.ar    
  36 C36           -5.0914     9.2667     6.4631 C.ar    
  37 H37            1.7879    -0.1477     0.4155 H       
  38 H38           -0.8801     2.9039     1.7394 H       
  39 H39           -2.2621    -0.1474    -0.9188 H       
  40 H40           -3.7780     1.4554     0.3770 H       
  41 H41           -4.1480     5.7280    -1.6737 H       
  42 H42           -3.9494     8.1783    -1.5504 H       
  43 H43           -4.3522     7.9897     2.7001 H       
  44 H44           -4.5503     5.5398     2.5683 H       
  45 H45           -0.1449    -2.3964    -0.5264 H       
  46 H46           -0.5946    -1.5269    -2.0130 H       
  47 H47            1.0966    -1.5252    -1.4579 H       
  48 H48            2.2059     2.7888     1.3555 H       
  49 H49            1.2533     2.5555     2.8409 H       
  50 H50            2.3666     1.2813     2.2883 H       
  51 H51           -3.7844    10.7400     4.4736 H       
  52 H52           -4.9478     3.7100    -0.5884 H       
  53 H53           -5.1113     3.6310     1.1823 H       
  54 H54           -4.8749    12.1009     1.1989 H       
  55 H55           -4.1164    12.1604     2.8081 H       
  56 H56           -3.1082    11.9514     1.3562 H       
  57 H57           -5.7454     8.7692     2.4355 H       
  58 H58           -5.6844    10.1906     3.5051 H       
  59 H59           -6.3534    10.3409     1.8625 H       
  60 H60           -1.9049     8.5376     4.8537 H       
  61 H61            1.0109    10.6470     5.5596 H       
  62 H62           -1.8364     9.3955     7.2141 H       
  63 H63           -2.9178    10.7227     6.7267 H       
  64 H64           -2.6411     7.1067     7.3045 H       
  65 H65           -4.5880     5.6279     7.5977 H       
  66 H66           -6.8571     6.4787     7.1610 H       
  67 H67           -7.1793     8.8085     6.4320 H       
  68 H68           -5.2327    10.2886     6.1434 H       
@<TRIPOS>BOND
   1    1    2 ar
   2    1   19 1
   3    1    6 ar
   4    2    3 ar
   5    2   37 1
   6    3    4 ar
   7    3   20 1
   8    4    5 ar
   9    4   38 1
  10    5    6 ar
  11    5    7 1
  12    6   39 1
  13    7    8 am
  14    7   40 1
  15    8    9 2
  16    8   23 1
  17   10   11 ar
  18   10   15 ar
  19   10   23 1
  20   11   12 ar
  21   11   41 1
  22   12   13 ar
  23   12   42 1
  24   13   14 ar
  25   13   16 1
  26   14   15 ar
  27   14   43 1
  28   15   44 1
  29   16   17 1
  30   17   18 1
  31   17   24 1
  32   17   25 1
  33   18   21 2
  34   18   22 am
  35   19   45 1
  36   19   46 1
  37   19   47 1
  38   20   48 1
  39   20   49 1
  40   20   50 1
  41   22   26 1
  42   22   51 1
  43   23   52 1
  44   23   53 1
  45   24   54 1
  46   24   55 1
  47   24   56 1
  48   25   57 1
  49   25   58 1
  50   25   59 1
  51   26   27 1
  52   26   30 1
  53   26   60 1
  54   27   28 2
  55   27   29 1
  56   29   61 1
  57   30   31 1
  58   30   62 1
  59   30   63 1
  60   31   32 ar
  61   31   36 ar
  62   32   33 ar
  63   32   64 1
  64   33   34 ar
  65   33   65 1
  66   34   35 ar
  67   34   66 1
  68   35   36 ar
  69   35   67 1
  70   36   68 1

#	End of record

