#	Name: ASD01850007
#	Creating user name:	WinNT
#	Creation time:	15. 06. 2019 19:38

#	Modifying user name:	WinNT
#	Modification time:	15. 06. 2019 19:38

#	Program:	/corina/corina34_cracker 3.40 0067  02.08.2006

@<TRIPOS>MOLECULE
ASD01850007
  48   52    0    0    0
SMALL
NO_CHARGES


@<TRIPOS>ATOM
   1 O1             0.0441     0.0197    -0.2240 O.2     
   2 C2            -0.0144     1.2113     0.0087 C.2     
   3 N3             1.1162     1.9115     0.2277 N.am    
   4 C4             1.2297     3.3745     0.4077 C.3     
   5 C5             2.7437     3.6561     0.5622 C.3     
   6 N6             3.3675     2.4851    -0.0774 N.am    
   7 C7             2.4765     1.3705     0.3409 C.3     
   8 C8             2.7779     0.9364     1.7521 C.ar    
   9 C9             1.7722     0.4156     2.5448 C.ar    
  10 C10            2.0487     0.0174     3.8393 C.ar    
  11 C11            3.3310     0.1396     4.3411 C.ar    
  12 C12            4.3369     0.6596     3.5481 C.ar    
  13 C13            4.0613     1.0537     2.2521 C.ar    
  14 C14            2.7326     0.2688    -0.6484 C.ar    
  15 C15            2.1063    -0.9230    -0.9285 C.ar    
  16 C16            2.6029    -1.7512    -1.9212 C.ar    
  17 C17            3.7295    -1.3840    -2.6353 C.ar    
  18 C18            4.3637    -0.1881    -2.3667 C.ar    
  19 C19            3.8684     0.6532    -1.3722 C.ar    
  20 C20            4.3200     1.9697    -0.8557 C.2     
  21 O21            5.3888     2.4924    -1.1047 O.2     
  22 C22           -1.3254     1.8938     0.0454 C.ar    
  23 C23           -1.3896     3.2812     0.1817 C.ar    
  24 C24           -2.6164     3.9120     0.2148 C.ar    
  25 C25           -3.7809     3.1722     0.1138 C.ar    
  26 C26           -3.7242     1.7962    -0.0215 C.ar    
  27 C27           -2.5042     1.1538    -0.0618 C.ar    
  28 C28           -4.9980     0.9984    -0.1309 C.3     
  29 F29           -6.0963     1.8628    -0.0711 F       
  30 F30           -5.0132     0.3086    -1.3479 F       
  31 F31           -5.0670     0.0830     0.9248 F       
  32 H32            0.8369     3.8936    -0.4665 H       
  33 H33            0.6946     3.6867     1.3046 H       
  34 H34            3.0202     4.5726     0.0410 H       
  35 H35            3.0196     3.7124     1.6153 H       
  36 H36            0.7704     0.3201     2.1527 H       
  37 H37            1.2629    -0.3889     4.4588 H       
  38 H38            3.5469    -0.1709     5.3527 H       
  39 H39            5.3386     0.7554     3.9403 H       
  40 H40            4.8472     1.4600     1.6326 H       
  41 H41            1.2266    -1.2136    -0.3735 H       
  42 H42            2.1093    -2.6869    -2.1383 H       
  43 H43            4.1142    -2.0358    -3.4057 H       
  44 H44            5.2429     0.0952    -2.9263 H       
  45 H45           -0.4812     3.8599     0.2613 H       
  46 H46           -2.6675     4.9857     0.3202 H       
  47 H47           -4.7386     3.6707     0.1409 H       
  48 H48           -2.4613     0.0799    -0.1678 H       
@<TRIPOS>BOND
   1    1    2 2
   2    2    3 am
   3    2   22 1
   4    3    4 1
   5    3    7 1
   6    4    5 1
   7    4   32 1
   8    4   33 1
   9    5    6 1
  10    5   34 1
  11    5   35 1
  12    6    7 1
  13    6   20 am
  14    7    8 1
  15    7   14 1
  16    8    9 ar
  17    8   13 ar
  18    9   10 ar
  19    9   36 1
  20   10   11 ar
  21   10   37 1
  22   11   12 ar
  23   11   38 1
  24   12   13 ar
  25   12   39 1
  26   13   40 1
  27   14   15 ar
  28   14   19 ar
  29   15   16 ar
  30   15   41 1
  31   16   17 ar
  32   16   42 1
  33   17   18 ar
  34   17   43 1
  35   18   19 ar
  36   18   44 1
  37   19   20 1
  38   20   21 2
  39   22   23 ar
  40   22   27 ar
  41   23   24 ar
  42   23   45 1
  43   24   25 ar
  44   24   46 1
  45   25   26 ar
  46   25   47 1
  47   26   27 ar
  48   26   28 1
  49   27   48 1
  50   28   29 1
  51   28   30 1
  52   28   31 1

#	End of record

