#	Name: ASD04880336
#	Creating user name:	WinNT
#	Creation time:	15. 06. 2019 20:53

#	Modifying user name:	WinNT
#	Modification time:	15. 06. 2019 20:53

#	Program:	/corina/corina34_cracker 3.40 0067  02.08.2006

@<TRIPOS>MOLECULE
ASD04880336
  42   44    0    0    0
SMALL
NO_CHARGES


@<TRIPOS>ATOM
   1 C1            -0.0143     1.3817     0.0537 C.ar    
   2 C2             0.0028     0.0001    -0.0071 C.ar    
   3 C3             1.2040    -0.6781    -0.0367 C.ar    
   4 C4             2.4051     0.0324    -0.0053 C.ar    
   5 C5             2.3833     1.4268     0.0560 C.ar    
   6 C6             1.1740     2.0944     0.0851 C.ar    
   7 C7             3.6948    -0.6888    -0.0364 C.2     
   8 O8             3.7146    -1.9024     0.0365 O.2     
   9 N9             4.8489    -0.0014    -0.1454 N.am    
  10 C10            6.2000    -0.5795    -0.0696 C.3     
  11 N11            4.9576     1.3720    -0.3543 N.2     
  12 C12            6.1709     1.7994    -0.4241 C.2     
  13 C13            7.1256     0.6392    -0.2552 C.3     
  14 C14            6.5674     3.2035    -0.6388 C.ar    
  15 C15            7.9193     3.5497    -0.6974 C.ar    
  16 C16            5.5926     4.1928    -0.7905 C.ar    
  17 C17            5.9708     5.5037    -0.9915 C.ar    
  18 C18            7.3122     5.8401    -1.0436 C.ar    
  19 C19            8.2829     4.8650    -0.8991 C.ar    
  20 F20            1.1498     3.4439     0.1440 F       
  21 C21            4.9209     6.5723    -1.1553 C.3     
  22 C22            5.0830     7.6199    -0.0521 C.3     
  23 C23            5.0829     7.2412    -2.5217 C.3     
  24 H24           -0.9574     1.9076     0.0721 H       
  25 H25           -0.9267    -0.5494    -0.0310 H       
  26 H26            1.2149    -1.7570    -0.0838 H       
  27 H27            3.3092     1.9823     0.0809 H       
  28 H28            6.3653    -1.0420     0.9034 H       
  29 H29            6.3531    -1.3029    -0.8704 H       
  30 H30            7.7504     0.7833     0.6262 H       
  31 H31            7.7418     0.5183    -1.1462 H       
  32 H32            8.6781     2.7895    -0.5847 H       
  33 H33            4.5455     3.9315    -0.7507 H       
  34 H34            7.6026     6.8683    -1.2016 H       
  35 H35            9.3279     5.1348    -0.9408 H       
  36 H36            3.9305     6.1222    -1.0862 H       
  37 H37            4.9676     7.1433     0.9214 H       
  38 H38            6.0733     8.0700    -0.1211 H       
  39 H39            4.3236     8.3928    -0.1706 H       
  40 H40            4.9674     6.4949    -3.3077 H       
  41 H41            4.3235     8.0141    -2.6402 H       
  42 H42            6.0732     7.6913    -2.5908 H       
@<TRIPOS>BOND
   1    1    2 ar
   2    1    6 ar
   3    1   24 1
   4    2    3 ar
   5    2   25 1
   6    3    4 ar
   7    3   26 1
   8    4    5 ar
   9    4    7 1
  10    5    6 ar
  11    5   27 1
  12    6   20 1
  13    7    8 2
  14    7    9 am
  15    9   10 1
  16    9   11 1
  17   10   13 1
  18   10   28 1
  19   10   29 1
  20   11   12 2
  21   12   13 1
  22   12   14 1
  23   13   30 1
  24   13   31 1
  25   14   15 ar
  26   14   16 ar
  27   15   19 ar
  28   15   32 1
  29   16   17 ar
  30   16   33 1
  31   17   18 ar
  32   17   21 1
  33   18   19 ar
  34   18   34 1
  35   19   35 1
  36   21   22 1
  37   21   23 1
  38   21   36 1
  39   22   37 1
  40   22   38 1
  41   22   39 1
  42   23   40 1
  43   23   41 1
  44   23   42 1

#	End of record

