#	Name: ASD02038245
#	Creating user name:	WinNT
#	Creation time:	15. 06. 2019 20:16

#	Modifying user name:	WinNT
#	Modification time:	15. 06. 2019 20:16

#	Program:	/corina/corina34_cracker 3.40 0067  02.08.2006

@<TRIPOS>MOLECULE
ASD02038245
  52   55    0    0    0
SMALL
NO_CHARGES


@<TRIPOS>ATOM
   1 C1             1.6805     1.6534    -0.7215 C.3     
   2 C2             1.8478     0.1332    -0.7783 C.3     
   3 N3             0.6057    -0.4755    -1.2747 N.3     
   4 C4             0.7003    -1.9415    -1.2723 C.3     
   5 C5             1.5633    -2.3988    -2.4500 C.3     
   6 O6             2.9075    -1.9542    -2.2565 O.3     
   7 C7             1.5388    -3.9261    -2.5374 C.3     
   8 O8             2.2482    -4.3478    -3.7040 O.3     
   9 C9             2.3214    -5.6863    -3.9317 C.ar    
  10 C10            2.9949    -6.1681    -5.0460 C.ar    
  11 C11            1.7284    -6.5768    -3.0484 C.ar    
  12 C12            1.8014    -7.9351    -3.2754 C.ar    
  13 C13            2.4720    -8.4238    -4.3949 C.ar    
  14 C14            3.0660    -7.5244    -5.2709 C.ar    
  15 C15            0.2744     0.0287    -2.6147 C.3     
  16 C16            0.1071     1.5489    -2.5579 C.3     
  17 N17            1.3492     2.1576    -2.0615 N.3     
  18 C18            1.2593     3.5515    -2.0638 C.ar    
  19 C19            2.3325     4.3190    -1.6292 C.ar    
  20 C20            2.2404     5.6969    -1.6332 C.ar    
  21 C21            1.0815     6.3128    -2.0692 C.ar    
  22 C22            0.0113     5.5517    -2.5024 C.ar    
  23 C23            0.0986     4.1734    -2.5060 C.ar    
  24 N24            2.6793    -9.7339    -4.8346 N.am    
  25 C25            3.3855    -9.7807    -5.9767 C.2     
  26 C26            3.7015    -8.3519    -6.3644 C.3     
  27 O27            3.7113   -10.7802    -6.5818 O.2     
  28 H28            0.8770     1.9052    -0.0293 H       
  29 H29            2.6103     2.1091    -0.3811 H       
  30 H30            2.6691    -0.1175    -1.4496 H       
  31 H31            2.0650    -0.2464     0.2202 H       
  32 H32            1.1535    -2.2748    -0.3387 H       
  33 H33           -0.2976    -2.3701    -1.3650 H       
  34 H34            1.1702    -1.9756    -3.3744 H       
  35 H35            3.3216    -2.2928    -1.4509 H       
  36 H36            2.0130    -4.3484    -1.6514 H       
  37 H37            0.5062    -4.2702    -2.5958 H       
  38 H38            3.4618    -5.4802    -5.7354 H       
  39 H39            1.2075    -6.2045    -2.1786 H       
  40 H40            1.3376    -8.6223    -2.5832 H       
  41 H41            1.0779    -0.2231    -3.3069 H       
  42 H42           -0.6554    -0.4270    -2.9551 H       
  43 H43           -0.1101     1.9285    -3.5563 H       
  44 H44           -0.7142     1.7996    -1.8866 H       
  45 H45            3.2377     3.8387    -1.2883 H       
  46 H46            3.0742     6.2942    -1.2952 H       
  47 H47            1.0120     7.3905    -2.0709 H       
  48 H48           -0.8924     6.0358    -2.8422 H       
  49 H49           -0.7375     3.5796    -2.8448 H       
  50 H50            2.3515   -10.5190    -4.3688 H       
  51 H51            3.2585    -8.1116    -7.3309 H       
  52 H52            4.7795    -8.1920    -6.3872 H       
@<TRIPOS>BOND
   1    1    2 1
   2    1   17 1
   3    1   28 1
   4    1   29 1
   5    2    3 1
   6    2   30 1
   7    2   31 1
   8    3    4 1
   9    3   15 1
  10    4    5 1
  11    4   32 1
  12    4   33 1
  13    5    6 1
  14    5    7 1
  15    5   34 1
  16    6   35 1
  17    7    8 1
  18    7   36 1
  19    7   37 1
  20    8    9 1
  21    9   10 ar
  22    9   11 ar
  23   10   14 ar
  24   10   38 1
  25   11   12 ar
  26   11   39 1
  27   12   13 ar
  28   12   40 1
  29   13   14 ar
  30   13   24 1
  31   14   26 1
  32   15   16 1
  33   15   41 1
  34   15   42 1
  35   16   17 1
  36   16   43 1
  37   16   44 1
  38   17   18 1
  39   18   19 ar
  40   18   23 ar
  41   19   20 ar
  42   19   45 1
  43   20   21 ar
  44   20   46 1
  45   21   22 ar
  46   21   47 1
  47   22   23 ar
  48   22   48 1
  49   23   49 1
  50   24   25 am
  51   24   50 1
  52   25   26 1
  53   25   27 2
  54   26   51 1
  55   26   52 1

#	End of record

