#	Name: ASD03330624
#	Creating user name:	WinNT
#	Creation time:	15. 06. 2019 20:37

#	Modifying user name:	WinNT
#	Modification time:	15. 06. 2019 20:37

#	Program:	/corina/corina34_cracker 3.40 0067  02.08.2006

@<TRIPOS>MOLECULE
ASD03330624
  70   73    0    0    0
SMALL
NO_CHARGES


@<TRIPOS>ATOM
   1 C1            -0.0161     1.9149     1.7060 C.2     
   2 N2            -0.0873     0.6211     2.0986 N.pl3   
   3 C3             1.2665     2.1447     1.3080 C.2     
   4 N4             1.9536     0.9902     1.4456 N.2     
   5 C5             1.1464     0.0670     1.9148 C.2     
   6 C6             1.5124    -1.3366     2.1971 C.ar    
   7 C7             1.8073     3.4241     0.8157 C.2     
   8 O8             1.0851     4.3994     0.7365 O.2     
   9 C9             3.6400     4.7852    -0.0364 C.3     
  10 N10            3.1023     3.5134     0.4531 N.am    
  11 C11            3.3634     4.9125    -1.5358 C.3     
  12 C12            1.8618     4.7693    -1.7914 C.3     
  13 C13            3.8360     6.2823    -2.0270 C.3     
  14 C14            4.1160     3.8133    -2.2883 C.3     
  15 C15            5.1268     4.8285     0.2057 C.2     
  16 N16            5.7920     5.9964     0.1062 N.am    
  17 O17            5.7247     3.8124     0.4900 O.2     
  18 C18            7.2477     6.0263     0.2681 C.3     
  19 C19           -1.2800    -0.0403     2.6349 C.3     
  20 C20           -2.4813     0.2882     1.7430 C.3     
  21 C21           -3.1309     1.5865     2.2114 C.3     
  22 N22           -2.1283     2.5158     2.7366 N.3     
  23 C23           -1.1586     2.8973     1.6993 C.3     
  24 C24           -2.7662     3.7022     3.3228 C.3     
  25 C25            2.2104    -2.0917     1.2390 C.ar    
  26 C26            2.5494    -3.4128     1.5181 C.ar    
  27 C27            2.2002    -3.9738     2.7300 C.ar    
  28 C28            1.5124    -3.2304     3.6746 C.ar    
  29 C29            1.1726    -1.9181     3.4179 C.ar    
  30 C30            2.5828    -1.4853    -0.0611 C.ar    
  31 C31            3.8925    -1.5829    -0.5292 C.ar    
  32 C32            4.2334    -1.0163    -1.7404 C.ar    
  33 C33            3.2787    -0.3520    -2.4895 C.ar    
  34 C34            1.9777    -0.2520    -2.0302 C.ar    
  35 C35            1.6236    -0.8200    -0.8234 C.ar    
  36 H36            3.1616     5.6095     0.4926 H       
  37 H37            3.6784     2.7355     0.5162 H       
  38 H38            1.3256     5.5523    -1.2553 H       
  39 H39            1.6648     4.8600    -2.8596 H       
  40 H40            1.5251     3.7934    -1.4414 H       
  41 H41            4.8724     6.4379    -1.7276 H       
  42 H42            3.7615     6.3241    -3.1137 H       
  43 H43            3.2107     7.0607    -1.5898 H       
  44 H44            3.7794     2.8375    -1.9383 H       
  45 H45            3.9190     3.9040    -3.3565 H       
  46 H46            5.1858     3.9154    -2.1062 H       
  47 H47            5.3069     6.8172    -0.0726 H       
  48 H48            7.7106     5.3942    -0.4897 H       
  49 H49            7.6049     7.0499     0.1551 H       
  50 H50            7.5107     5.6571     1.2593 H       
  51 H51           -1.1223    -1.1187     2.6508 H       
  52 H52           -1.4699     0.3159     3.6474 H       
  53 H53           -2.1469     0.4016     0.7118 H       
  54 H54           -3.2080    -0.5221     1.8007 H       
  55 H55           -3.6455     2.0526     1.3712 H       
  56 H56           -3.8556     1.3621     2.9940 H       
  57 H57           -0.7796     3.8983     1.9053 H       
  58 H58           -1.6446     2.8843     0.7238 H       
  59 H59           -3.4211     3.3967     4.1389 H       
  60 H60           -1.9991     4.3756     3.7052 H       
  61 H61           -3.3517     4.2145     2.5594 H       
  62 H62            3.0853    -3.9988     0.7863 H       
  63 H63            2.4647    -4.9991     2.9427 H       
  64 H64            1.2442    -3.6793     4.6196 H       
  65 H65            0.6362    -1.3441     4.1590 H       
  66 H66            4.6388    -2.1006     0.0551 H       
  67 H67            5.2475    -1.0912    -2.1041 H       
  68 H68            3.5503     0.0905    -3.4365 H       
  69 H69            1.2367     0.2681    -2.6191 H       
  70 H70            0.6075    -0.7412    -0.4657 H       
@<TRIPOS>BOND
   1    1    2 1
   2    1    3 2
   3    1   23 1
   4    2   19 1
   5    2    5 1
   6    3    4 1
   7    3    7 1
   8    4    5 2
   9    5    6 1
  10    6   25 ar
  11    6   29 ar
  12    7    8 2
  13    7   10 am
  14    9   10 1
  15    9   11 1
  16    9   15 1
  17    9   36 1
  18   10   37 1
  19   11   12 1
  20   11   13 1
  21   11   14 1
  22   12   38 1
  23   12   39 1
  24   12   40 1
  25   13   41 1
  26   13   42 1
  27   13   43 1
  28   14   44 1
  29   14   45 1
  30   14   46 1
  31   15   16 am
  32   15   17 2
  33   16   18 1
  34   16   47 1
  35   18   48 1
  36   18   49 1
  37   18   50 1
  38   19   20 1
  39   19   51 1
  40   19   52 1
  41   20   21 1
  42   20   53 1
  43   20   54 1
  44   21   22 1
  45   21   55 1
  46   21   56 1
  47   22   23 1
  48   22   24 1
  49   23   57 1
  50   23   58 1
  51   24   59 1
  52   24   60 1
  53   24   61 1
  54   25   26 ar
  55   25   30 1
  56   26   27 ar
  57   26   62 1
  58   27   28 ar
  59   27   63 1
  60   28   29 ar
  61   28   64 1
  62   29   65 1
  63   30   31 ar
  64   30   35 ar
  65   31   32 ar
  66   31   66 1
  67   32   33 ar
  68   32   67 1
  69   33   34 ar
  70   33   68 1
  71   34   35 ar
  72   34   69 1
  73   35   70 1

#	End of record

