#	Name: ASD01208527
#	Creating user name:	WinNT
#	Creation time:	15. 06. 2019 19:10

#	Modifying user name:	WinNT
#	Modification time:	15. 06. 2019 19:10

#	Program:	/corina/corina34_cracker 3.40 0067  02.08.2006

@<TRIPOS>MOLECULE
ASD01208527
  66   69    0    0    0
SMALL
NO_CHARGES


@<TRIPOS>ATOM
   1 N1            -0.0829     1.5288    -0.4738 N.pl3   
   2 C2            -0.0812     0.1590    -0.6131 C.2     
   3 C3             1.2323    -0.2622    -0.6690 C.2     
   4 C4             2.0387     0.8694    -0.5620 C.2     
   5 C5             1.2096     1.9637    -0.4424 C.2     
   6 C6            -1.2659    -0.7010    -0.6887 C.2     
   7 O7            -1.1370    -1.9049    -0.8124 O.2     
   8 N8            -2.4978    -0.1585    -0.6213 N.am    
   9 C9            -3.6818    -1.0179    -0.6968 C.3     
  10 C10           -4.9434    -0.1581    -0.5968 C.3     
  11 Cl11          -6.4005    -1.2159    -0.6898 Cl      
  12 C12            1.6464     3.3692    -0.3046 C.ar    
  13 C13            0.6997     4.3883    -0.1923 C.ar    
  14 C14            1.1133     5.7039    -0.0634 C.ar    
  15 C15            2.4672     6.0091    -0.0459 C.ar    
  16 C16            3.4114     4.9990    -0.1577 C.ar    
  17 C17            3.0063     3.6800    -0.2807 C.ar    
  18 O18            4.7358     5.3033    -0.1408 O.3     
  19 C19            5.6532     4.2077    -0.1388 C.3     
  20 C20            6.9769     4.6520     0.4869 C.3     
  21 C21            5.8985     3.7452    -1.5764 C.3     
  22 O22            7.5820     5.6503    -0.3373 O.3     
  23 C23            8.8305     6.1360     0.1599 C.3     
  24 O24            0.1924     6.6971     0.0455 O.3     
  25 C25           -0.5771     6.7329     1.1632 C.ar    
  26 C26           -1.6166     7.6538     1.2615 C.ar    
  27 C27           -2.3997     7.6924     2.3954 C.ar    
  28 C28           -2.1482     6.8054     3.4460 C.ar    
  29 C29           -1.1040     5.8833     3.3424 C.ar    
  30 C30           -0.3291     5.8467     2.2039 C.ar    
  31 F31           -1.8578     8.5106     0.2451 F       
  32 C32           -2.9836     6.8433     4.6622 C.2     
  33 O33           -2.6731     6.1816     5.6339 O.2     
  34 N34           -4.0906     7.6113     4.6957 N.am    
  35 C35           -5.1731     7.8674     5.6578 C.3     
  36 C36           -6.0777     8.2105     4.4661 C.3     
  37 C37           -4.7441     8.5671     3.7889 C.3     
  38 H38           -0.8711     2.0907    -0.4124 H       
  39 H39            1.5725    -1.2816    -0.7755 H       
  40 H40            3.1186     0.8858    -0.5708 H       
  41 H41           -2.6005     0.8010    -0.5227 H       
  42 H42           -3.6817    -1.5539    -1.6460 H       
  43 H43           -3.6640    -1.7340     0.1248 H       
  44 H44           -4.9434     0.3779     0.3523 H       
  45 H45           -4.9611     0.5579    -1.4184 H       
  46 H46           -0.3539     4.1516    -0.2063 H       
  47 H47            2.7864     7.0359     0.0548 H       
  48 H48            3.7422     2.8937    -0.3625 H       
  49 H49            5.2353     3.3849     0.4413 H       
  50 H50            6.7898     5.0641     1.4785 H       
  51 H51            7.6454     3.7951     0.5697 H       
  52 H52            6.3165     4.5680    -2.1565 H       
  53 H53            6.5983     2.9095    -1.5749 H       
  54 H54            4.9556     3.4287    -2.0222 H       
  55 H55            9.2246     6.8898    -0.5218 H       
  56 H56            8.6819     6.5788     1.1447 H       
  57 H57            9.5375     5.3098     0.2359 H       
  58 H58           -3.2059     8.4070     2.4720 H       
  59 H59           -0.9070     5.1967     4.1524 H       
  60 H60            0.4751     5.1306     2.1219 H       
  61 H61           -5.4902     6.9775     6.2014 H       
  62 H62           -4.9790     8.7159     6.3138 H       
  63 H63           -6.5882     7.3515     4.0306 H       
  64 H64           -6.7336     9.0646     4.6342 H       
  65 H65           -4.4370     9.6001     3.9524 H       
  66 H66           -4.6958     8.2733     2.7404 H       
@<TRIPOS>BOND
   1    1    2 1
   2    1    5 1
   3    1   38 1
   4    2    3 2
   5    2    6 1
   6    3    4 1
   7    3   39 1
   8    4    5 2
   9    4   40 1
  10    5   12 1
  11    6    7 2
  12    6    8 am
  13    8    9 1
  14    8   41 1
  15    9   10 1
  16    9   42 1
  17    9   43 1
  18   10   11 1
  19   10   44 1
  20   10   45 1
  21   12   13 ar
  22   12   17 ar
  23   13   14 ar
  24   13   46 1
  25   14   15 ar
  26   14   24 1
  27   15   16 ar
  28   15   47 1
  29   16   17 ar
  30   16   18 1
  31   17   48 1
  32   18   19 1
  33   19   20 1
  34   19   21 1
  35   19   49 1
  36   20   22 1
  37   20   50 1
  38   20   51 1
  39   21   52 1
  40   21   53 1
  41   21   54 1
  42   22   23 1
  43   23   55 1
  44   23   56 1
  45   23   57 1
  46   24   25 1
  47   25   26 ar
  48   25   30 ar
  49   26   27 ar
  50   26   31 1
  51   27   28 ar
  52   27   58 1
  53   28   29 ar
  54   28   32 1
  55   29   30 ar
  56   29   59 1
  57   30   60 1
  58   32   33 2
  59   32   34 am
  60   34   35 1
  61   34   37 1
  62   35   36 1
  63   35   61 1
  64   35   62 1
  65   36   37 1
  66   36   63 1
  67   36   64 1
  68   37   65 1
  69   37   66 1

#	End of record

