#	Name: ASD03091059
#	Creating user name:	WinNT
#	Creation time:	15. 06. 2019 20:30

#	Modifying user name:	WinNT
#	Modification time:	15. 06. 2019 20:30

#	Program:	/corina/corina34_cracker 3.40 0067  02.08.2006

@<TRIPOS>MOLECULE
ASD03091059
  55   57    0    0    0
SMALL
NO_CHARGES


@<TRIPOS>ATOM
   1 C1            -0.0395     1.4496    -0.3779 C.2     
   2 C2            -0.0083    -0.0163    -0.1865 C.ar    
   3 C3             1.2138    -0.6879    -0.1194 C.ar    
   4 C4             1.2404    -2.0559     0.0593 C.ar    
   5 C5             0.0598    -2.7661     0.1728 C.ar    
   6 C6            -1.1621    -2.1070     0.1073 C.ar    
   7 C7            -1.1994    -0.7316    -0.0667 C.ar    
   8 O8             0.4806     1.9458    -1.3580 O.2     
   9 N9            -0.6496     2.2351     0.5317 N.am    
  10 N10            2.4810     0.0674    -0.2403 N.pl3   
  11 O11            3.5416    -0.5284    -0.3027 O.2     
  12 O12            2.4633     1.2847    -0.2775 O.2     
  13 C13           -0.6805     3.6874     0.3421 C.3     
  14 C14           -1.4163     4.3284     1.4905 C.2     
  15 O15           -1.8702     3.6398     2.3798 O.2     
  16 N16           -1.5700     5.6668     1.5294 N.am    
  17 C17           -2.2854     6.2899     2.6457 C.3     
  18 C18           -1.8139     7.7361     2.8099 C.3     
  19 C19           -3.7886     6.2726     2.3614 C.3     
  20 N20           -5.0885    -3.7006    -0.5027 N.3     
  21 C21           -4.8146    -2.6598     0.5000 C.3     
  22 C22           -3.5160    -1.9354     0.1813 C.3     
  23 N23           -2.3525    -2.8292     0.2220 N.3     
  24 C24           -2.4498    -3.8542    -0.8266 C.3     
  25 C25           -3.0826    -5.1220    -0.2726 C.3     
  26 C26           -4.5740    -4.9960    -0.0357 C.3     
  27 C27           -4.6996    -3.3973    -1.8632 C.3     
  28 C28           -3.1924    -3.2781    -2.0184 C.3     
  29 H29            2.1869    -2.5736     0.1102 H       
  30 H30            0.0870    -3.8367     0.3125 H       
  31 H31           -2.1476    -0.2169    -0.1138 H       
  32 H32           -1.0681     1.8388     1.3119 H       
  33 H33            0.3392     4.0708     0.3048 H       
  34 H34           -1.1909     3.9211    -0.5922 H       
  35 H35           -1.2070     6.2175     0.8182 H       
  36 H36           -2.0825     5.7354     3.5620 H       
  37 H37           -2.0167     8.2906     1.8937 H       
  38 H38           -2.3462     8.1997     3.6405 H       
  39 H39           -0.7430     7.7484     3.0125 H       
  40 H40           -3.9914     6.8271     1.4451 H       
  41 H41           -4.1245     5.2423     2.2444 H       
  42 H42           -4.3209     6.7362     3.1920 H       
  43 H43           -5.6345    -1.9416     0.5052 H       
  44 H44           -4.7361    -3.1213     1.4843 H       
  45 H45           -3.5908    -1.4983    -0.8144 H       
  46 H46           -3.3715    -1.1345     0.9065 H       
  47 H47           -1.4394    -4.0963    -1.1562 H       
  48 H48           -2.9080    -5.9359    -0.9763 H       
  49 H49           -2.5984    -5.3703     0.6719 H       
  50 H50           -4.7745    -5.0949     1.0311 H       
  51 H51           -5.0878    -5.7960    -0.5687 H       
  52 H52           -5.0610    -4.1893    -2.5191 H       
  53 H53           -5.1612    -2.4559    -2.1613 H       
  54 H54           -2.9293    -2.2257    -2.1248 H       
  55 H55           -2.8856    -3.8111    -2.9183 H       
@<TRIPOS>BOND
   1    1    2 1
   2    1    8 2
   3    1    9 am
   4    2    3 ar
   5    2    7 ar
   6    3    4 ar
   7    3   10 1
   8    4    5 ar
   9    4   29 1
  10    5    6 ar
  11    5   30 1
  12    6    7 ar
  13    6   23 1
  14    7   31 1
  15    9   13 1
  16    9   32 1
  17   10   11 2
  18   10   12 2
  19   13   14 1
  20   13   33 1
  21   13   34 1
  22   14   15 2
  23   14   16 am
  24   16   17 1
  25   16   35 1
  26   17   18 1
  27   17   19 1
  28   17   36 1
  29   18   37 1
  30   18   38 1
  31   18   39 1
  32   19   40 1
  33   19   41 1
  34   19   42 1
  35   20   21 1
  36   20   26 1
  37   20   27 1
  38   21   22 1
  39   21   43 1
  40   21   44 1
  41   22   23 1
  42   22   45 1
  43   22   46 1
  44   23   24 1
  45   24   25 1
  46   24   28 1
  47   24   47 1
  48   25   26 1
  49   25   48 1
  50   25   49 1
  51   26   50 1
  52   26   51 1
  53   27   28 1
  54   27   52 1
  55   27   53 1
  56   28   54 1
  57   28   55 1

#	End of record

