#	Name: ASD02198651
#	Creating user name:	WinNT
#	Creation time:	15. 06. 2019 20:19

#	Modifying user name:	WinNT
#	Modification time:	15. 06. 2019 20:19

#	Program:	/corina/corina34_cracker 3.40 0067  02.08.2006

@<TRIPOS>MOLECULE
ASD02198651
  59   63    0    0    0
SMALL
NO_CHARGES


@<TRIPOS>ATOM
   1 C1            -0.2601     1.3922     0.0100 C.2     
   2 C2            -0.2660     0.0898    -0.3849 C.2     
   3 N3            -1.4301    -0.5491    -0.6443 N.pl3   
   4 N4            -2.5785     0.0102    -0.5394 N.2     
   5 C5            -2.7158     1.2658    -0.1663 C.2     
   6 C6            -1.5115     2.0481     0.1442 C.2     
   7 C7            -1.3776    -1.8876    -1.0479 C.ar    
   8 C8            -1.9882    -2.2814    -2.2349 C.ar    
   9 C9            -1.9351    -3.6039    -2.6324 C.ar    
  10 C10           -1.2726    -4.5385    -1.8473 C.ar    
  11 C11           -0.6632    -4.1444    -0.6623 C.ar    
  12 C12           -0.7109    -2.8234    -0.2667 C.ar    
  13 C13           -4.0570     1.8754    -0.0574 C.2     
  14 N14           -4.5846     2.4851     1.0459 N.pl3   
  15 N15           -5.8743     2.9206     0.7169 N.2     
  16 C16           -6.1246     2.5941    -0.5259 C.2     
  17 C17           -5.0090     1.9415    -1.0509 C.2     
  18 C18           -3.9496     2.6450     2.2841 C.ar    
  19 C19           -4.0708     3.8413     2.9788 C.ar    
  20 C20           -3.4439     3.9958     4.1997 C.ar    
  21 C21           -2.6961     2.9607     4.7304 C.ar    
  22 C22           -2.5735     1.7682     4.0411 C.ar    
  23 C23           -3.2023     1.6057     2.8222 C.ar    
  24 O24           -1.5839     3.2171     0.4949 O.2     
  25 O25            0.9056     2.0417     0.2727 O.3     
  26 C26            2.1140     1.2953     0.1150 C.3     
  27 F27           -2.6328    -1.3715    -2.9977 F       
  28 N28           -1.2192    -5.8776    -2.2495 N.am    
  29 C29           -1.9254    -6.4208    -3.4157 C.3     
  30 C30           -1.9348    -7.9525    -3.2152 C.3     
  31 C31           -0.6929    -8.1607    -2.3179 C.3     
  32 C32           -0.5098    -6.8306    -1.6206 C.2     
  33 C33           -3.2096    -8.4031    -2.4990 C.3     
  34 C34           -1.7734    -8.6806    -4.5512 C.3     
  35 O35            0.1719    -6.6518    -0.6335 O.2     
  36 H36            0.6692    -0.4396    -0.4928 H       
  37 H37           -2.4089    -3.9107    -3.5532 H       
  38 H38           -0.1486    -4.8721    -0.0522 H       
  39 H39           -0.2370    -2.5183     0.6545 H       
  40 H40           -7.0417     2.7994    -1.0581 H       
  41 H41           -4.9118     1.5521    -2.0535 H       
  42 H42           -4.6544     4.6502     2.5646 H       
  43 H43           -3.5375     4.9261     4.7403 H       
  44 H44           -2.2065     3.0841     5.6851 H       
  45 H45           -1.9885     0.9618     4.4581 H       
  46 H46           -3.1062     0.6741     2.2844 H       
  47 H47            2.9670     1.9299     0.3555 H       
  48 H48            2.1002     0.4358     0.7851 H       
  49 H49            2.1964     0.9511    -0.9160 H       
  50 H50           -2.9456    -6.0386    -3.4506 H       
  51 H51           -1.3939    -6.1636    -4.3320 H       
  52 H52           -0.8752    -8.9532    -1.5921 H       
  53 H53            0.1821    -8.3923    -2.9253 H       
  54 H54           -4.0789    -8.1228    -3.0938 H       
  55 H55           -3.1909    -9.4853    -2.3705 H       
  56 H56           -3.2670    -7.9221    -1.5226 H       
  57 H57           -0.8269    -8.3936    -5.0093 H       
  58 H58           -1.7834    -9.7573    -4.3817 H       
  59 H59           -2.5949    -8.4095    -5.2143 H       
@<TRIPOS>BOND
   1    1    2 2
   2    1   25 1
   3    1    6 1
   4    2    3 1
   5    2   36 1
   6    3    4 1
   7    3    7 1
   8    4    5 2
   9    5    6 1
  10    5   13 1
  11    6   24 2
  12    7    8 ar
  13    7   12 ar
  14    8    9 ar
  15    8   27 1
  16    9   10 ar
  17    9   37 1
  18   10   11 ar
  19   10   28 1
  20   11   12 ar
  21   11   38 1
  22   12   39 1
  23   13   14 1
  24   13   17 2
  25   14   15 1
  26   14   18 1
  27   15   16 2
  28   16   17 1
  29   16   40 1
  30   17   41 1
  31   18   19 ar
  32   18   23 ar
  33   19   20 ar
  34   19   42 1
  35   20   21 ar
  36   20   43 1
  37   21   22 ar
  38   21   44 1
  39   22   23 ar
  40   22   45 1
  41   23   46 1
  42   25   26 1
  43   26   47 1
  44   26   48 1
  45   26   49 1
  46   28   29 1
  47   28   32 am
  48   29   30 1
  49   29   50 1
  50   29   51 1
  51   30   31 1
  52   30   33 1
  53   30   34 1
  54   31   32 1
  55   31   52 1
  56   31   53 1
  57   32   35 2
  58   33   54 1
  59   33   55 1
  60   33   56 1
  61   34   57 1
  62   34   58 1
  63   34   59 1

#	End of record

