#	Name: ASD03160012
#	Creating user name:	WinNT
#	Creation time:	15. 06. 2019 20:33

#	Modifying user name:	WinNT
#	Modification time:	15. 06. 2019 20:33

#	Program:	/corina/corina34_cracker 3.40 0067  02.08.2006

@<TRIPOS>MOLECULE
ASD03160012
  77   81    0    0    0
SMALL
NO_CHARGES


@<TRIPOS>ATOM
   1 C1            -0.4143     0.7631    -0.1392 C.3     
   2 C2             0.8206    -0.8956     1.3158 C.3     
   3 C3            -2.9311    -1.3777    -1.3149 C.ar    
   4 C4            -3.8509    -1.1214    -2.3099 C.ar    
   5 C5            -3.4258    -0.8588    -3.6007 C.ar    
   6 C6            -2.0770    -0.8506    -3.9037 C.ar    
   7 C7            -1.1426    -1.1053    -2.9167 C.ar    
   8 C8            -1.5666    -1.3717    -1.6108 C.ar    
   9 C9            -0.5759    -1.6449    -0.5500 C.2     
  10 O10           -0.2122    -2.7852    -0.3370 O.2     
  11 N11           -0.0752    -0.6300     0.1819 N.am    
  12 C12            0.8831     1.5603    -0.3069 C.3     
  13 C13            1.7438     1.3961     0.9478 C.3     
  14 C14            2.1042    -0.0798     1.1318 C.3     
  15 C15            1.1577    -2.3637     1.3640 C.ar    
  16 C16            2.4451    -2.7854     1.0867 C.ar    
  17 C17            2.7574    -4.1299     1.1299 C.ar    
  18 C18            1.7765    -5.0591     1.4525 C.ar    
  19 C19            0.4842    -4.6321     1.7305 C.ar    
  20 C20            0.1801    -3.2855     1.6910 C.ar    
  21 C21           -3.3975    -1.6575     0.0905 C.3     
  22 F22            0.1755    -1.0968    -3.2129 F       
  23 C23            2.8432    -0.5727    -0.0856 C.2     
  24 N24            2.0888    -6.4198     1.4967 N.pl3   
  25 C25            1.0530    -7.3984     1.8371 C.3     
  26 C26            0.9860    -7.5865     3.3668 C.3     
  27 C27            0.6986    -9.0973     3.5514 C.3     
  28 C28            1.5454    -9.7461     2.4284 C.3     
  29 C29            1.4086    -8.7714     1.2405 C.3     
  30 O30            2.2388    -1.1282    -0.9784 O.2     
  31 N31            4.1759    -0.3961    -0.1822 N.am    
  32 C32            4.8467    -0.7607    -1.3548 C.ar    
  33 C33            5.9318    -0.0147    -1.7965 C.ar    
  34 C34            6.5917    -0.3772    -2.9541 C.ar    
  35 C35            6.1729    -1.4815    -3.6737 C.ar    
  36 C36            5.0928    -2.2260    -3.2369 C.ar    
  37 C37            4.4326    -1.8725    -2.0762 C.ar    
  38 C38            6.8951    -1.8739    -4.9368 C.3     
  39 C39            7.7691     0.4317    -3.4341 C.3     
  40 F40            7.4967     0.9410    -4.7083 F       
  41 F41            8.0001     1.4898    -2.5485 F       
  42 F42            8.9037    -0.3848    -3.4910 F       
  43 H43           -0.9856     0.7955    -1.0669 H       
  44 H44           -1.0044     1.1915     0.6709 H       
  45 H45            0.3313    -0.6024     2.2446 H       
  46 H46           -4.9064    -1.1260    -2.0812 H       
  47 H47           -4.1516    -0.6596    -4.3752 H       
  48 H48           -1.7525    -0.6452    -4.9131 H       
  49 H49            1.4291     1.1884    -1.1739 H       
  50 H50            0.6463     2.6145    -0.4503 H       
  51 H51            2.6566     1.9822     0.8413 H       
  52 H52            1.1877     1.7453     1.8179 H       
  53 H53            2.7365    -0.1929     2.0124 H       
  54 H54            3.2072    -2.0624     0.8356 H       
  55 H55            3.7630    -4.4587     0.9129 H       
  56 H56           -0.2808    -5.3520     1.9813 H       
  57 H57           -0.8233    -2.9524     1.9113 H       
  58 H58           -3.4680    -0.7207     0.6432 H       
  59 H59           -4.3765    -2.1359     0.0599 H       
  60 H60           -2.6855    -2.3184     0.5848 H       
  61 H61            2.9914    -6.7168     1.3021 H       
  62 H62            0.0866    -7.0657     1.4584 H       
  63 H63            1.9381    -7.3204     3.8259 H       
  64 H64            0.1776    -6.9899     3.7895 H       
  65 H65            1.0322    -9.4369     4.5319 H       
  66 H66           -0.3609    -9.3093     3.4078 H       
  67 H67            2.5878    -9.8287     2.7360 H       
  68 H68            1.1465   -10.7265     2.1679 H       
  69 H69            0.6144    -9.1055     0.5729 H       
  70 H70            2.3519    -8.7097     0.6977 H       
  71 H71            4.6699    -0.0162     0.5611 H       
  72 H72            6.2589     0.8482    -1.2354 H       
  73 H73            4.7680    -3.0876    -3.8013 H       
  74 H74            3.5922    -2.4575    -1.7327 H       
  75 H75            7.7022    -2.5652    -4.6941 H       
  76 H76            6.1962    -2.3568    -5.6199 H       
  77 H77            7.3092    -0.9836    -5.4101 H       
@<TRIPOS>BOND
   1    1   11 1
   2    1   12 1
   3    1   43 1
   4    1   44 1
   5    2   14 1
   6    2   45 1
   7    2   11 1
   8    2   15 1
   9    3    8 ar
  10    3    4 ar
  11    3   21 1
  12    4    5 ar
  13    4   46 1
  14    5    6 ar
  15    5   47 1
  16    6    7 ar
  17    6   48 1
  18    7   22 1
  19    7    8 ar
  20    8    9 1
  21    9   10 2
  22    9   11 am
  23   12   13 1
  24   12   49 1
  25   12   50 1
  26   13   14 1
  27   13   51 1
  28   13   52 1
  29   14   23 1
  30   14   53 1
  31   15   20 ar
  32   15   16 ar
  33   16   54 1
  34   16   17 ar
  35   17   18 ar
  36   17   55 1
  37   18   19 ar
  38   18   24 1
  39   19   20 ar
  40   19   56 1
  41   20   57 1
  42   21   58 1
  43   21   59 1
  44   21   60 1
  45   23   31 am
  46   23   30 2
  47   24   25 1
  48   24   61 1
  49   25   29 1
  50   25   62 1
  51   25   26 1
  52   26   27 1
  53   26   63 1
  54   26   64 1
  55   27   28 1
  56   27   65 1
  57   27   66 1
  58   28   67 1
  59   28   68 1
  60   28   29 1
  61   29   69 1
  62   29   70 1
  63   31   32 1
  64   31   71 1
  65   32   37 ar
  66   32   33 ar
  67   33   34 ar
  68   33   72 1
  69   34   35 ar
  70   34   39 1
  71   35   38 1
  72   35   36 ar
  73   36   73 1
  74   36   37 ar
  75   37   74 1
  76   38   75 1
  77   38   76 1
  78   38   77 1
  79   39   41 1
  80   39   40 1
  81   39   42 1

#	End of record

