#	Name: ASD01814196
#	Creating user name:	WinNT
#	Creation time:	15. 06. 2019 19:31

#	Modifying user name:	WinNT
#	Modification time:	15. 06. 2019 19:31

#	Program:	/corina/corina34_cracker 3.40 0067  02.08.2006

@<TRIPOS>MOLECULE
ASD01814196
  61   65    0    0    0
SMALL
NO_CHARGES


@<TRIPOS>ATOM
   1 N1            -0.5688     1.6482     1.3785 N.2     
   2 C2            -0.6780     0.3636     1.6229 C.2     
   3 C3             0.4521    -0.4662     1.5634 C.2     
   4 C4             1.6576     0.0708     1.2513 C.2     
   5 N5             1.7431     1.4109     1.0015 N.pl3   
   6 C6             0.6168     2.1897     1.0692 C.2     
   7 N7             2.8145     2.2438     0.6627 N.2     
   8 C8             2.3701     3.4770     0.5280 C.2     
   9 C9             1.0069     3.4899     0.7712 C.2     
  10 C10            2.8166     4.8811     0.2019 C.3     
  11 N11            1.6373     5.7501     0.2632 N.am    
  12 C12            0.4965     4.8996     0.6175 C.3     
  13 C13            1.6075     7.0784     0.0368 C.2     
  14 O14            2.6425     7.6847    -0.1616 O.2     
  15 C15            0.3188     7.7967     0.0297 C.ar    
  16 C16            0.0311     8.7185    -0.9864 C.ar    
  17 C17           -0.6239     7.5580     1.0322 C.ar    
  18 C18           -1.8261     8.2320     1.0196 C.ar    
  19 C19           -2.1045     9.1459     0.0168 C.ar    
  20 C20           -1.1834     9.3876    -0.9834 C.ar    
  21 O21            0.9370     8.9552    -1.9680 O.3     
  22 C22            0.5307     9.8195    -3.0311 C.3     
  23 C23            0.4431    12.1884    -3.8150 C.3     
  24 C24            0.8237    11.2730    -2.6491 C.3     
  25 C25            1.3083     9.4675    -4.3023 C.3     
  26 C26            0.9136    10.4351    -5.4203 C.3     
  27 N27            1.2141    11.8117    -5.0066 N.3     
  28 C28            2.8862    -0.7990     1.1815 C.3     
  29 Cl29           0.3082    -2.1657     1.8872 Cl      
  30 C30           -2.0223    -0.2228     1.9694 C.3     
  31 C31            0.9773    12.7557    -6.1070 C.3     
  32 C32            3.8562     5.3451     1.2241 C.3     
  33 O33            3.3325     5.1820     2.5437 O.3     
  34 H34            3.2445     4.9093    -0.8001 H       
  35 H35           -0.2526     4.9372    -0.1733 H       
  36 H36            0.0607     5.2393     1.5571 H       
  37 H37           -0.4113     6.8460     1.8160 H       
  38 H38           -2.5546     8.0464     1.7951 H       
  39 H39           -3.0492     9.6693     0.0145 H       
  40 H40           -1.4094    10.0986    -1.7643 H       
  41 H41           -0.5372     9.6975    -3.2118 H       
  42 H42           -0.6218    12.0863    -4.0242 H       
  43 H43            0.6637    13.2228    -3.5516 H       
  44 H44            0.2399    11.5428    -1.7690 H       
  45 H45            1.8856    11.3849    -2.4303 H       
  46 H46            2.3779     9.5509    -4.1095 H       
  47 H47            1.0707     8.4472    -4.6034 H       
  48 H48            1.4761    10.1962    -6.3228 H       
  49 H49           -0.1534    10.3413    -5.6220 H       
  50 H50            2.6153    -1.8296     1.4111 H       
  51 H51            3.3099    -0.7496     0.1784 H       
  52 H52            3.6221    -0.4471     1.9045 H       
  53 H53           -2.7742     0.5663     1.9678 H       
  54 H54           -2.2890    -0.9803     1.2324 H       
  55 H55           -1.9759    -0.6785     2.9584 H       
  56 H56            1.2782    13.7567    -5.7980 H       
  57 H57            1.5603    12.4533    -6.9769 H       
  58 H58           -0.0823    12.7574    -6.3625 H       
  59 H59            4.7625     4.7491     1.1167 H       
  60 H60            4.0899     6.3959     1.0532 H       
  61 H61            3.9395     5.4569     3.2444 H       
@<TRIPOS>BOND
   1    1    2 2
   2    1    6 1
   3    2    3 1
   4    2   30 1
   5    3    4 2
   6    3   29 1
   7    4    5 1
   8    4   28 1
   9    5    7 1
  10    5    6 1
  11    6    9 2
  12    7    8 2
  13    8   10 1
  14    8    9 1
  15    9   12 1
  16   10   11 1
  17   10   32 1
  18   10   34 1
  19   11   12 1
  20   11   13 am
  21   12   35 1
  22   12   36 1
  23   13   14 2
  24   13   15 1
  25   15   17 ar
  26   15   16 ar
  27   16   20 ar
  28   16   21 1
  29   17   18 ar
  30   17   37 1
  31   18   19 ar
  32   18   38 1
  33   19   20 ar
  34   19   39 1
  35   20   40 1
  36   21   22 1
  37   22   25 1
  38   22   24 1
  39   22   41 1
  40   23   24 1
  41   23   27 1
  42   23   42 1
  43   23   43 1
  44   24   44 1
  45   24   45 1
  46   25   26 1
  47   25   46 1
  48   25   47 1
  49   26   27 1
  50   26   48 1
  51   26   49 1
  52   27   31 1
  53   28   50 1
  54   28   51 1
  55   28   52 1
  56   30   53 1
  57   30   54 1
  58   30   55 1
  59   31   56 1
  60   31   57 1
  61   31   58 1
  62   32   33 1
  63   32   59 1
  64   32   60 1
  65   33   61 1

#	End of record

