#	Name: ASD01208515
#	Creating user name:	WinNT
#	Creation time:	15. 06. 2019 19:09

#	Modifying user name:	WinNT
#	Modification time:	15. 06. 2019 19:09

#	Program:	/corina/corina34_cracker 3.40 0067  02.08.2006

@<TRIPOS>MOLECULE
ASD01208515
  52   55    0    0    0
SMALL
NO_CHARGES


@<TRIPOS>ATOM
   1 C1             2.2880     1.3756     3.2588 C.ar    
   2 C2             2.2779    -0.0189     3.2302 C.ar    
   3 N3             2.6966     2.0598     2.1911 N.ar    
   4 N4             2.6732    -0.6589     2.1451 N.ar    
   5 C5             3.0797     0.0239     1.0832 C.ar    
   6 C6             3.0900     1.4199     1.1113 C.ar    
   7 C7             1.8400     2.0937     4.4702 C.2     
   8 O8             1.4628     1.4696     5.4416 O.2     
   9 O9             1.8500     3.4406     4.4973 O.3     
  10 O10            3.4852    -0.6335    -0.0297 O.3     
  11 C11            3.5560    -1.9897     0.0207 C.ar    
  12 C12            2.3975    -2.7390     0.1724 C.ar    
  13 C13            2.4641    -4.1237     0.2245 C.ar    
  14 C14            3.6880    -4.7646     0.1252 C.ar    
  15 C15            4.8554    -4.0152    -0.0274 C.ar    
  16 C16            4.7833    -2.6224    -0.0850 C.ar    
  17 N17            7.3774    -4.0769    -0.2850 N.pl3   
  18 C18            6.1633    -4.6945    -0.1332 C.2     
  19 C19            6.3676    -6.0439    -0.0964 C.2     
  20 C20            7.7402    -6.2708    -0.2283 C.2     
  21 C21            8.3529    -5.0422    -0.3442 C.2     
  22 S22           11.0345    -6.0565    -0.5781 S.3     
  23 C23            9.7957    -4.8061    -0.5039 C.2     
  24 N24           10.3643    -3.6365    -0.6144 N.2     
  25 C25           11.6703    -3.6199    -0.7510 C.2     
  26 C26           12.2712    -4.8142    -0.7612 C.2     
  27 O27            1.3267    -4.8525     0.3735 O.3     
  28 C28            1.4498    -6.2733     0.2817 C.3     
  29 C29            0.1850    -6.8548    -0.3530 C.3     
  30 C30            1.6341    -6.8608     1.6823 C.3     
  31 O31           -0.9297    -6.6271     0.5116 O.3     
  32 C32           -2.1678    -7.1343     0.0096 C.3     
  33 H33            1.9472    -0.5748     4.0951 H       
  34 H34            3.4212     1.9747     0.2459 H       
  35 H35            1.5480     3.8656     5.3117 H       
  36 H36            1.4416    -2.2426     0.2505 H       
  37 H37            3.7389    -5.8426     0.1662 H       
  38 H38            5.6839    -2.0389    -0.2074 H       
  39 H39            7.5229    -3.1198    -0.3447 H       
  40 H40            5.6050    -6.8004     0.0151 H       
  41 H41            8.2308    -7.2329    -0.2373 H       
  42 H42           12.2248    -2.6983    -0.8487 H       
  43 H43           13.3322    -4.9879    -0.8637 H       
  44 H44            2.3136    -6.5240    -0.3341 H       
  45 H45            0.0049    -6.3712    -1.3131 H       
  46 H46            0.3143    -7.9264    -0.5046 H       
  47 H47            0.7704    -6.6101     2.2980 H       
  48 H48            1.7281    -7.9445     1.6122 H       
  49 H49            2.5352    -6.4465     2.1344 H       
  50 H50           -2.9637    -6.9216     0.7234 H       
  51 H51           -2.3967    -6.6565    -0.9429 H       
  52 H52           -2.0873    -8.2118    -0.1344 H       
@<TRIPOS>BOND
   1    1    2 ar
   2    1    3 ar
   3    1    7 1
   4    2    4 ar
   5    2   33 1
   6    3    6 ar
   7    4    5 ar
   8    5    6 ar
   9    5   10 1
  10    6   34 1
  11    7    8 2
  12    7    9 1
  13    9   35 1
  14   10   11 1
  15   11   12 ar
  16   11   16 ar
  17   12   13 ar
  18   12   36 1
  19   13   14 ar
  20   13   27 1
  21   14   15 ar
  22   14   37 1
  23   15   16 ar
  24   15   18 1
  25   16   38 1
  26   17   18 1
  27   17   21 1
  28   17   39 1
  29   18   19 2
  30   19   20 1
  31   19   40 1
  32   20   21 2
  33   20   41 1
  34   21   23 1
  35   22   23 1
  36   22   26 1
  37   23   24 2
  38   24   25 1
  39   25   26 2
  40   25   42 1
  41   26   43 1
  42   27   28 1
  43   28   29 1
  44   28   30 1
  45   28   44 1
  46   29   31 1
  47   29   45 1
  48   29   46 1
  49   30   47 1
  50   30   48 1
  51   30   49 1
  52   31   32 1
  53   32   50 1
  54   32   51 1
  55   32   52 1

#	End of record

