#	Name: ASD08150738
#	Creating user name:	WinNT
#	Creation time:	15. 06. 2019 21:16

#	Modifying user name:	WinNT
#	Modification time:	15. 06. 2019 21:16

#	Program:	/corina/corina34_cracker 3.40 0067  02.08.2006

@<TRIPOS>MOLECULE
ASD08150738
  47   51    0    0    0
SMALL
NO_CHARGES


@<TRIPOS>ATOM
   1 C1            -0.0158     1.3168     0.0093 C.2     
   2 N2             0.0021    -0.0041     0.0020 N.2     
   3 C3             1.1387    -0.6846    -0.0125 C.2     
   4 C4             2.3424     0.0131    -0.0203 C.2     
   5 C5             2.3160     1.4197    -0.0125 C.2     
   6 N6             1.1169     2.0725     0.0025 N.am    
   7 S7            -1.3640     2.4677     0.0210 S.3     
   8 C8             0.9183     3.4311     0.0118 C.2     
   9 C9            -0.3178     3.8980     0.0246 C.2     
  10 O10            3.3590     2.0528    -0.0187 O.2     
  11 C11            1.1279    -2.1915    -0.0200 C.3     
  12 C12            0.5274    -2.7038     1.2907 C.3     
  13 N13            0.3212    -2.6685    -1.1460 N.pl3   
  14 C14            1.7352    -5.9046    -1.6990 C.ar    
  15 N15            1.0462    -6.3896    -2.7093 N.ar    
  16 C16            0.0707    -5.6778    -3.2715 C.ar    
  17 C17           -0.2066    -4.3961    -2.7611 C.ar    
  18 C18            0.5553    -3.9217    -1.6827 C.ar    
  19 N19            1.5081    -4.7075    -1.1893 N.ar    
  20 N20           -0.7993    -5.8979    -4.3037 N.pl3   
  21 C21           -1.3068    -3.8663    -3.5645 C.2     
  22 C22           -1.6165    -4.8095    -4.4690 C.2     
  23 C23            2.0925     4.3757     0.0056 C.3     
  24 C24            3.6328    -0.7145    -0.0361 C.ar    
  25 C25            4.4822    -0.6084    -1.1368 C.ar    
  26 C26            5.6853    -1.2888    -1.1466 C.ar    
  27 C27            6.0478    -2.0750    -0.0652 C.ar    
  28 C28            5.2072    -2.1840     1.0305 C.ar    
  29 C29            4.0046    -1.5030     1.0522 C.ar    
  30 F30            5.5660    -2.9527     2.0819 F       
  31 F31            6.5089    -1.1871    -2.2127 F       
  32 H32           -0.6257     4.9332     0.0310 H       
  33 H33            2.1481    -2.5617    -0.1214 H       
  34 H34            1.1277    -2.3489     2.1285 H       
  35 H35           -0.4928    -2.3336     1.3921 H       
  36 H36            0.5197    -3.7937     1.2853 H       
  37 H37           -0.3771    -2.1056    -1.5152 H       
  38 H38            2.5158    -6.5123    -1.2656 H       
  39 H39           -0.8331    -6.7054    -4.8401 H       
  40 H40           -1.7799    -2.9019    -3.4522 H       
  41 H41           -2.3926    -4.7234    -5.2151 H       
  42 H42            2.3658     4.6090    -1.0235 H       
  43 H43            1.8228     5.2941     0.5270 H       
  44 H44            2.9383     3.9072     0.5088 H       
  45 H45            4.2003     0.0041    -1.9805 H       
  46 H46            6.9887    -2.6051    -0.0766 H       
  47 H47            3.3521    -1.5847     1.9089 H       
@<TRIPOS>BOND
   1    1    2 2
   2    1    6 1
   3    1    7 1
   4    2    3 1
   5    3    4 2
   6    3   11 1
   7    4    5 1
   8    4   24 1
   9    5    6 am
  10    5   10 2
  11    6    8 1
  12    7    9 1
  13    8    9 2
  14    8   23 1
  15    9   32 1
  16   11   12 1
  17   11   13 1
  18   11   33 1
  19   12   34 1
  20   12   35 1
  21   12   36 1
  22   13   18 1
  23   13   37 1
  24   14   15 ar
  25   14   19 ar
  26   14   38 1
  27   15   16 ar
  28   16   17 ar
  29   16   20 1
  30   17   18 ar
  31   17   21 1
  32   18   19 ar
  33   20   22 1
  34   20   39 1
  35   21   22 2
  36   21   40 1
  37   22   41 1
  38   23   42 1
  39   23   43 1
  40   23   44 1
  41   24   25 ar
  42   24   29 ar
  43   25   26 ar
  44   25   45 1
  45   26   27 ar
  46   26   31 1
  47   27   28 ar
  48   27   46 1
  49   28   29 ar
  50   28   30 1
  51   29   47 1

#	End of record

