#	Name: ASD00071006
#	Creating user name:	WinNT
#	Creation time:	15. 06. 2019 18:30

#	Modifying user name:	WinNT
#	Modification time:	15. 06. 2019 18:30

#	Program:	/corina/corina34_cracker 3.40 0067  02.08.2006

@<TRIPOS>MOLECULE
ASD00071006
  39   41    0    0    0
SMALL
NO_CHARGES


@<TRIPOS>ATOM
   1 C1             0.0384     1.1536    -0.1081 C.2     
   2 O2            -0.0063    -0.0622    -0.1070 O.2     
   3 C3             1.3392     1.8423    -0.0912 C.ar    
   4 C4             1.8994     2.2651     1.1242 C.ar    
   5 C5             3.1241     2.9122     1.1282 C.ar    
   6 C6             3.7940     3.1425    -0.0592 C.ar    
   7 C7             3.2513     2.7308    -1.2624 C.ar    
   8 C8             2.0311     2.0758    -1.2897 C.ar    
   9 O9             1.5037     1.6675    -2.4710 O.3     
  10 C10            2.2068     2.0391    -3.6583 C.3     
  11 O11            1.2438     2.0412     2.2905 O.3     
  12 C12            1.8750     2.4995     3.4879 C.3     
  13 N13           -3.5855     1.9670    -0.3026 N.ar    
  14 C14           -2.4595     1.2872    -0.2783 C.ar    
  15 C15           -1.2108     1.9375    -0.1326 C.ar    
  16 C16           -1.1729     3.3207    -0.0123 C.ar    
  17 C17           -2.3915     4.0215    -0.0411 C.ar    
  18 C18           -2.4262     5.4212     0.0758 C.ar    
  19 C19           -3.6231     6.0703     0.0445 C.ar    
  20 C20           -4.8145     5.3639    -0.1016 C.ar    
  21 C21           -4.8174     4.0069    -0.2175 C.ar    
  22 C22           -3.6033     3.3006    -0.1903 C.ar    
  23 N23           -2.4966    -0.0893    -0.3978 N.pl3   
  24 H24            3.5571     3.2385     2.0623 H       
  25 H25            4.7483     3.6482    -0.0468 H       
  26 H26            3.7831     2.9162    -2.1839 H       
  27 H27            2.3394     3.1209    -3.6785 H       
  28 H28            3.1824     1.5532    -3.6700 H       
  29 H29            1.6348     1.7268    -4.5320 H       
  30 H30            2.8434     2.0114     3.5979 H       
  31 H31            2.0162     3.5790     3.4338 H       
  32 H32            1.2468     2.2577     4.3452 H       
  33 H33           -0.2343     3.8429     0.1004 H       
  34 H34           -1.5087     5.9794     0.1901 H       
  35 H35           -3.6487     7.1463     0.1344 H       
  36 H36           -5.7513     5.9009    -0.1229 H       
  37 H37           -5.7506     3.4752    -0.3300 H       
  38 H38           -3.3373    -0.5379    -0.5789 H       
  39 H39           -1.6819    -0.6066    -0.3006 H       
@<TRIPOS>BOND
   1    1    2 2
   2    1    3 1
   3    1   15 1
   4    3    4 ar
   5    3    8 ar
   6    4    5 ar
   7    4   11 1
   8    5    6 ar
   9    5   24 1
  10    6    7 ar
  11    6   25 1
  12    7    8 ar
  13    7   26 1
  14    8    9 1
  15    9   10 1
  16   10   27 1
  17   10   28 1
  18   10   29 1
  19   11   12 1
  20   12   30 1
  21   12   31 1
  22   12   32 1
  23   13   14 ar
  24   13   22 ar
  25   14   15 ar
  26   14   23 1
  27   15   16 ar
  28   16   17 ar
  29   16   33 1
  30   17   18 ar
  31   17   22 ar
  32   18   19 ar
  33   18   34 1
  34   19   20 ar
  35   19   35 1
  36   20   21 ar
  37   20   36 1
  38   21   22 ar
  39   21   37 1
  40   23   38 1
  41   23   39 1

#	End of record

