#	Name: ASD08150524
#	Creating user name:	WinNT
#	Creation time:	15. 06. 2019 21:16

#	Modifying user name:	WinNT
#	Modification time:	15. 06. 2019 21:16

#	Program:	/corina/corina34_cracker 3.40 0067  02.08.2006

@<TRIPOS>MOLECULE
ASD08150524
  28   29    0    0    0
SMALL
NO_CHARGES


@<TRIPOS>ATOM
   1 C1            -0.0183     1.4684     0.0189 C.2     
   2 C2             0.0010    -0.0045    -0.0108 C.ar    
   3 C3             0.0026    -0.7356     1.1880 C.ar    
   4 C4             0.0204    -2.1236     1.1465 C.ar    
   5 C5             0.0369    -2.7798    -0.0679 C.ar    
   6 C6             0.0353    -2.0630    -1.2530 C.ar    
   7 C7             0.0120    -0.6837    -1.2331 C.ar    
   8 O8             1.0269     2.0900     0.0381 O.2     
   9 N9            -1.1941     2.1271     0.0193 N.am    
  10 C10           -1.2149     3.5221     0.1326 C.ar    
  11 C11           -2.3322     4.1624     0.6586 C.ar    
  12 C12           -2.3485     5.5405     0.7687 C.ar    
  13 C13           -1.2556     6.2811     0.3561 C.ar    
  14 C14           -0.1442     5.6469    -0.1669 C.ar    
  15 C15           -0.1185     4.2694    -0.2742 C.ar    
  16 F16           -3.3999     3.4388     1.0607 F       
  17 Cl17           0.0029     0.2073    -2.7230 Cl      
  18 N18           -0.0130    -0.0740     2.4091 N.pl3   
  19 H19            0.0217    -2.6906     2.0657 H       
  20 H20            0.0514    -3.8594    -0.0941 H       
  21 H21            0.0483    -2.5866    -2.1976 H       
  22 H22           -2.0260     1.6344    -0.0590 H       
  23 H23           -3.2152     6.0390     1.1768 H       
  24 H24           -1.2708     7.3576     0.4423 H       
  25 H25            0.7072     6.2286    -0.4880 H       
  26 H26            0.7524     3.7751    -0.6788 H       
  27 H27           -0.0251     0.8956     2.4352 H       
  28 H28           -0.0119    -0.5815     3.2357 H       
@<TRIPOS>BOND
   1    1    2 1
   2    1    8 2
   3    1    9 am
   4    2    3 ar
   5    2    7 ar
   6    3    4 ar
   7    3   18 1
   8    4    5 ar
   9    4   19 1
  10    5    6 ar
  11    5   20 1
  12    6    7 ar
  13    6   21 1
  14    7   17 1
  15    9   10 1
  16    9   22 1
  17   10   11 ar
  18   10   15 ar
  19   11   12 ar
  20   11   16 1
  21   12   13 ar
  22   12   23 1
  23   13   14 ar
  24   13   24 1
  25   14   15 ar
  26   14   25 1
  27   15   26 1
  28   18   27 1
  29   18   28 1

#	End of record

