#	Name: ASD01885629
#	Creating user name:	WinNT
#	Creation time:	15. 06. 2019 19:49

#	Modifying user name:	WinNT
#	Modification time:	15. 06. 2019 19:49

#	Program:	/corina/corina34_cracker 3.40 0067  02.08.2006

@<TRIPOS>MOLECULE
ASD01885629
  34   36    0    0    0
SMALL
NO_CHARGES


@<TRIPOS>ATOM
   1 C1            -0.0172     1.4136     0.0098 C.ar    
   2 C2             0.0021    -0.0041     0.0020 C.ar    
   3 C3            -1.2277    -0.7095     0.0099 C.ar    
   4 C4            -2.4015     0.0312     0.0251 C.ar    
   5 C5            -2.3343     1.4291     0.0320 C.ar    
   6 N6            -1.1791     2.0669     0.0299 N.ar    
   7 C7             1.2053     2.1130     0.0019 C.ar    
   8 C8             2.3775     1.4229    -0.0130 C.ar    
   9 C9             2.3912     0.0293    -0.0205 C.ar    
  10 C10            1.2286    -0.6812    -0.0128 C.ar    
  11 C11           -1.2589    -2.1901     0.0017 C.ar    
  12 C12           -0.7533    -2.9069     1.0862 C.ar    
  13 C13           -0.7849    -4.2861     1.0732 C.ar    
  14 C14           -1.3168    -4.9587    -0.0138 C.ar    
  15 C15           -1.8198    -4.2520    -1.0935 C.ar    
  16 C16           -1.7994    -2.8730    -1.0883 C.ar    
  17 C17           -3.5928     2.2132     0.0482 C.2     
  18 N18           -3.5476     3.5602     0.0551 N.am    
  19 O19           -4.6648     1.6413     0.0553 O.2     
  20 Cl20          -1.3529    -6.6943    -0.0237 Cl      
  21 C21           -0.1732    -2.1761     2.2697 C.3     
  22 H22           -3.3594    -0.4675     0.0311 H       
  23 H23            1.2121     3.1929     0.0072 H       
  24 H24            3.3124     1.9636    -0.0193 H       
  25 H25            3.3357    -0.4943    -0.0327 H       
  26 H26            1.2524    -1.7609    -0.0185 H       
  27 H27           -0.3937    -4.8421     1.9124 H       
  28 H28           -2.2329    -4.7818    -1.9392 H       
  29 H29           -2.1922    -2.3229    -1.9306 H       
  30 H30           -2.6917     4.0167     0.0494 H       
  31 H31           -4.3708     4.0731     0.0657 H       
  32 H32           -0.9602    -1.9826     2.9986 H       
  33 H33            0.6045    -2.7869     2.7282 H       
  34 H34            0.2557    -1.2305     1.9382 H       
@<TRIPOS>BOND
   1    1    2 ar
   2    1    7 ar
   3    1    6 ar
   4    2    3 ar
   5    2   10 ar
   6    3    4 ar
   7    3   11 1
   8    4    5 ar
   9    4   22 1
  10    5    6 ar
  11    5   17 1
  12    7    8 ar
  13    7   23 1
  14    8    9 ar
  15    8   24 1
  16    9   10 ar
  17    9   25 1
  18   10   26 1
  19   11   12 ar
  20   11   16 ar
  21   12   13 ar
  22   12   21 1
  23   13   14 ar
  24   13   27 1
  25   14   15 ar
  26   14   20 1
  27   15   16 ar
  28   15   28 1
  29   16   29 1
  30   17   18 am
  31   17   19 2
  32   18   30 1
  33   18   31 1
  34   21   32 1
  35   21   33 1
  36   21   34 1

#	End of record

