#	Name: ASD01911802
#	Creating user name:	WinNT
#	Creation time:	15. 06. 2019 19:58

#	Modifying user name:	WinNT
#	Modification time:	15. 06. 2019 19:58

#	Program:	/corina/corina34_cracker 3.40 0067  02.08.2006

@<TRIPOS>MOLECULE
ASD01911802
  39   41    0    0    0
SMALL
NO_CHARGES


@<TRIPOS>ATOM
   1 N1            -0.4782     1.5343     0.6659 N.pl3   
   2 C2            -0.7776     0.2423     1.0917 C.2     
   3 C3             0.3040     2.0151     2.8378 C.2     
   4 N4             0.0142     0.7688     3.2420 N.2     
   5 C5            -0.5099    -0.1139     2.4244 C.2     
   6 C6            -1.3125    -0.4490     0.0180 C.2     
   7 C7            -1.3336     0.4507    -1.0761 C.2     
   8 C8            -0.8061     1.6553    -0.6308 C.2     
   9 N9            -1.7473    -1.7768     0.0142 N.pl3   
  10 C10           -0.8857    -2.7933    -0.4085 C.ar    
  11 C11           -1.2778    -4.1250    -0.3120 C.ar    
  12 C12            0.3610    -2.4762    -0.9308 C.ar    
  13 C13            1.2104    -3.4829    -1.3483 C.ar    
  14 C14            0.8206    -4.8060    -1.2470 C.ar    
  15 C15           -0.4229    -5.1269    -0.7315 C.ar    
  16 F16           -2.4918    -4.4382     0.1913 F       
  17 I17            2.1129    -6.3276    -1.8824 I       
  18 C18           -1.8190     0.1607    -2.4333 C.2     
  19 N19           -0.9518    -0.2205    -3.3920 N.am    
  20 O20           -3.0033     0.2648    -2.6909 O.2     
  21 O21           -1.4192    -0.4998    -4.6991 O.3     
  22 C22           -0.3923    -0.8921    -5.6121 C.3     
  23 C23           -1.0086    -1.1672    -6.9852 C.3     
  24 O24           -1.5453     0.0453    -7.5181 O.3     
  25 C25            0.0729     2.4176     1.5781 C.2     
  26 F26           -0.6557     2.7708    -1.3780 F       
  27 H27            0.7342     2.7110     3.5428 H       
  28 H28           -0.7350    -1.1105     2.7748 H       
  29 H29           -2.6471    -1.9934     0.3049 H       
  30 H30            0.6665    -1.4435    -1.0112 H       
  31 H31            2.1801    -3.2362    -1.7546 H       
  32 H32           -0.7243    -6.1611    -0.6538 H       
  33 H33           -0.0074    -0.3035    -3.1866 H       
  34 H34            0.3429    -0.0920    -5.6976 H       
  35 H35            0.0947    -1.7955    -5.2449 H       
  36 H36           -0.2414    -1.5513    -7.6575 H       
  37 H37           -1.8056    -1.9040    -6.8848 H       
  38 H38           -1.9531    -0.0545    -8.3892 H       
  39 H39            0.3162     3.4261     1.2777 H       
@<TRIPOS>BOND
   1    1    2 1
   2    1   25 1
   3    1    8 1
   4    2    6 2
   5    2    5 1
   6    3    4 1
   7    3   25 2
   8    3   27 1
   9    4    5 2
  10    5   28 1
  11    6    7 1
  12    6    9 1
  13    7    8 2
  14    7   18 1
  15    8   26 1
  16    9   10 1
  17    9   29 1
  18   10   11 ar
  19   10   12 ar
  20   11   16 1
  21   11   15 ar
  22   12   13 ar
  23   12   30 1
  24   13   14 ar
  25   13   31 1
  26   14   15 ar
  27   14   17 1
  28   15   32 1
  29   18   19 am
  30   18   20 2
  31   19   21 1
  32   19   33 1
  33   21   22 1
  34   22   23 1
  35   22   34 1
  36   22   35 1
  37   23   24 1
  38   23   36 1
  39   23   37 1
  40   24   38 1
  41   25   39 1

#	End of record

