#	Name: ASD02198174
#	Creating user name:	WinNT
#	Creation time:	15. 06. 2019 20:18

#	Modifying user name:	WinNT
#	Modification time:	15. 06. 2019 20:18

#	Program:	/corina/corina34_cracker 3.40 0067  02.08.2006

@<TRIPOS>MOLECULE
ASD02198174
  40   42    0    0    0
SMALL
NO_CHARGES


@<TRIPOS>ATOM
   1 C1             0.5460     1.3871    -0.6382 C.2     
   2 C2             0.4575     0.0137    -0.5502 C.2     
   3 C3            -0.7762    -0.6757    -0.3190 C.1     
   4 S4             2.1551     1.8762    -0.9185 S.3     
   5 C5             2.7289     0.2163    -0.9196 C.2     
   6 C6             1.6761    -0.6426    -0.7071 C.2     
   7 C7             4.0673    -0.1765    -1.1097 C.2     
   8 C8             5.0897     0.8304    -1.4722 C.ar    
   9 O9             4.3843    -1.3462    -0.9756 O.2     
  10 N10            1.8136    -2.0207    -0.6541 N.pl3   
  11 N11           -0.5217     2.2469    -0.5213 N.pl3   
  12 N12           -1.7548    -1.2226    -0.1357 N.1     
  13 C13            4.7328     1.9537    -2.2193 C.ar    
  14 C14           -0.3080     3.6278    -0.5019 C.ar    
  15 C15            0.8179     4.1476     0.1204 C.ar    
  16 C16            5.6905     2.8889    -2.5535 C.ar    
  17 C17            7.0023     2.7148    -2.1496 C.ar    
  18 C18            7.3627     1.6030    -1.4091 C.ar    
  19 C19            6.4134     0.6634    -1.0634 C.ar    
  20 C20            1.0263     5.5204     0.1373 C.ar    
  21 C21            0.1069     6.3687    -0.4688 C.ar    
  22 C22           -1.0133     5.8473    -1.0871 C.ar    
  23 C23           -1.2203     4.4817    -1.1111 C.ar    
  24 S24            2.4540     6.1861     0.9266 S.3     
  25 C25            2.2629     7.9726     0.6764 C.3     
  26 H26            2.6874    -2.4257    -0.7698 H       
  27 H27            1.0361    -2.5801    -0.5012 H       
  28 H28           -1.4228     1.8946    -0.4524 H       
  29 H29            3.7092     2.0905    -2.5354 H       
  30 H30            1.5303     3.4862     0.5908 H       
  31 H31            5.4157     3.7585    -3.1320 H       
  32 H32            7.7483     3.4497    -2.4138 H       
  33 H33            8.3885     1.4725    -1.0974 H       
  34 H34            6.6958    -0.2038    -0.4850 H       
  35 H35            0.2682     7.4365    -0.4561 H       
  36 H36           -1.7262     6.5087    -1.5570 H       
  37 H37           -2.0969     4.0775    -1.5955 H       
  38 H38            1.3342     8.3070     1.1390 H       
  39 H39            3.1042     8.4953     1.1315 H       
  40 H40            2.2353     8.1890    -0.3915 H       
@<TRIPOS>BOND
   1    1    2 2
   2    1    4 1
   3    1   11 1
   4    2    3 1
   5    2    6 1
   6    3   12 3
   7    4    5 1
   8    5    6 2
   9    5    7 1
  10    6   10 1
  11    7    8 1
  12    7    9 2
  13    8   13 ar
  14    8   19 ar
  15   10   26 1
  16   10   27 1
  17   11   14 1
  18   11   28 1
  19   13   16 ar
  20   13   29 1
  21   14   15 ar
  22   14   23 ar
  23   15   20 ar
  24   15   30 1
  25   16   17 ar
  26   16   31 1
  27   17   18 ar
  28   17   32 1
  29   18   19 ar
  30   18   33 1
  31   19   34 1
  32   20   21 ar
  33   20   24 1
  34   21   22 ar
  35   21   35 1
  36   22   23 ar
  37   22   36 1
  38   23   37 1
  39   24   25 1
  40   25   38 1
  41   25   39 1
  42   25   40 1

#	End of record

