#	Name: ASD02500297
#	Creating user name:	WinNT
#	Creation time:	15. 06. 2019 20:22

#	Modifying user name:	WinNT
#	Modification time:	15. 06. 2019 20:22

#	Program:	/corina/corina34_cracker 3.40 0067  02.08.2006

@<TRIPOS>MOLECULE
ASD02500297
  61   64    0    0    0
SMALL
NO_CHARGES


@<TRIPOS>ATOM
   1 C1            -0.1559     1.8521    -3.0217 C.ar    
   2 C2             0.8198     1.6147    -2.0643 C.ar    
   3 C3             1.9615     0.9032    -2.4019 C.ar    
   4 C4             2.1252     0.4322    -3.6904 C.ar    
   5 C5             1.1513     0.6703    -4.6438 C.ar    
   6 C6             0.0113     1.3796    -4.3088 C.ar    
   7 S7            -1.6107     2.7494    -2.5941 S.o2    
   8 O8            -1.1766     3.9090    -1.8968 O.2     
   9 O9            -2.4094     2.8021    -3.7683 O.2     
  10 N10           -2.4486     1.8318    -1.4994 N.am    
  11 C11           -2.9789     0.6048    -1.8822 C.ar    
  12 C12           -2.8148    -0.5088    -1.0629 C.ar    
  13 C13           -3.3384    -1.7246    -1.4389 C.ar    
  14 C14           -4.0357    -1.8408    -2.6450 C.ar    
  15 C15           -4.1988    -0.7207    -3.4654 C.ar    
  16 C16           -3.6777     0.4936    -3.0811 C.ar    
  17 C17           -4.5979    -3.1427    -3.0513 C.2     
  18 O18           -5.6363    -3.1863    -3.6823 O.2     
  19 N19           -3.9604    -4.2839    -2.7230 N.am    
  20 C20           -4.5616    -5.5946    -3.0129 C.3     
  21 C21           -3.5295    -6.4500    -3.7555 C.3     
  22 N22           -2.2849    -6.4960    -2.9765 N.3     
  23 C23           -1.6886    -5.1599    -2.8453 C.3     
  24 C24           -2.6425    -4.2518    -2.0709 C.3     
  25 C25           -1.3747    -7.3984    -3.5384 C.ar    
  26 C26           -0.1319    -7.5891    -2.9491 C.ar    
  27 C27            0.7657    -8.4798    -3.5044 C.ar    
  28 C28            0.4263    -9.1834    -4.6505 C.ar    
  29 C29           -0.8147    -8.9931    -5.2400 C.ar    
  30 C30           -1.7161    -8.1077    -4.6823 C.ar    
  31 O31            1.3111   -10.0600    -5.1969 O.3     
  32 C32            0.8956   -10.7503    -6.3770 C.3     
  33 O33            0.6573     2.0793    -0.7974 O.3     
  34 C34            1.6448     1.7013     0.1639 C.3     
  35 Cl35           1.3597     0.0784    -6.2624 Cl      
  36 H36            2.7223     0.7177    -1.6581 H       
  37 H37            3.0140    -0.1219    -3.9537 H       
  38 H38           -0.7480     1.5642    -5.0543 H       
  39 H39           -2.5695     2.1504    -0.5912 H       
  40 H40           -2.2757    -0.4185    -0.1315 H       
  41 H41           -3.2105    -2.5882    -0.8031 H       
  42 H42           -4.7367    -0.8074    -4.3979 H       
  43 H43           -3.8074     1.3603    -3.7123 H       
  44 H44           -4.8396    -6.0844    -2.0796 H       
  45 H45           -5.4449    -5.4622    -3.6375 H       
  46 H46           -3.9176    -7.4608    -3.8811 H       
  47 H47           -3.3304    -6.0122    -4.7336 H       
  48 H48           -0.7416    -5.2351    -2.3108 H       
  49 H49           -1.5152    -4.7401    -3.8361 H       
  50 H50           -2.2577    -3.2319    -2.0731 H       
  51 H51           -2.7325    -4.6099    -1.0454 H       
  52 H52            0.1328    -7.0408    -2.0571 H       
  53 H53            1.7324    -8.6283    -3.0462 H       
  54 H54           -1.0780    -9.5411    -6.1326 H       
  55 H55           -2.6843    -7.9635    -5.1386 H       
  56 H56            0.0008   -11.3339    -6.1606 H       
  57 H57            0.6765   -10.0273    -7.1628 H       
  58 H58            1.6925   -11.4162    -6.7080 H       
  59 H59            1.7317     0.6150     0.1876 H       
  60 H60            2.6053     2.1367    -0.1115 H       
  61 H61            1.3505     2.0638     1.1489 H       
@<TRIPOS>BOND
   1    1    2 ar
   2    1    6 ar
   3    1    7 1
   4    2    3 ar
   5    2   33 1
   6    3    4 ar
   7    3   36 1
   8    4    5 ar
   9    4   37 1
  10    5    6 ar
  11    5   35 1
  12    6   38 1
  13    7    8 2
  14    7    9 2
  15    7   10 am
  16   10   11 1
  17   10   39 1
  18   11   12 ar
  19   11   16 ar
  20   12   13 ar
  21   12   40 1
  22   13   14 ar
  23   13   41 1
  24   14   15 ar
  25   14   17 1
  26   15   16 ar
  27   15   42 1
  28   16   43 1
  29   17   18 2
  30   17   19 am
  31   19   20 1
  32   19   24 1
  33   20   21 1
  34   20   44 1
  35   20   45 1
  36   21   22 1
  37   21   46 1
  38   21   47 1
  39   22   23 1
  40   22   25 1
  41   23   24 1
  42   23   48 1
  43   23   49 1
  44   24   50 1
  45   24   51 1
  46   25   26 ar
  47   25   30 ar
  48   26   27 ar
  49   26   52 1
  50   27   28 ar
  51   27   53 1
  52   28   29 ar
  53   28   31 1
  54   29   30 ar
  55   29   54 1
  56   30   55 1
  57   31   32 1
  58   32   56 1
  59   32   57 1
  60   32   58 1
  61   33   34 1
  62   34   59 1
  63   34   60 1
  64   34   61 1

#	End of record

