#	Name: ASD03092254
#	Creating user name:	WinNT
#	Creation time:	15. 06. 2019 20:32

#	Modifying user name:	WinNT
#	Modification time:	15. 06. 2019 20:32

#	Program:	/corina/corina34_cracker 3.40 0067  02.08.2006

@<TRIPOS>MOLECULE
ASD03092254
  40   42    0    0    0
SMALL
NO_CHARGES


@<TRIPOS>ATOM
   1 C1            -0.0183     1.5027    -0.0326 C.3     
   2 C2             0.0021    -0.0041    -0.0187 C.2     
   3 C3            -1.0429    -0.8207    -0.0206 C.2     
   4 N4            -0.7795    -2.1567    -0.0062 N.pl3   
   5 C5             0.5270    -2.5246     0.0088 C.2     
   6 S6             1.4274    -1.0568    -0.0043 S.3     
   7 N7             1.0119    -3.7638     0.0244 N.2     
   8 C8             2.3329    -3.9642     0.0379 C.2     
   9 O9             3.0938    -3.0120     0.0361 O.2     
  10 N10            2.8240    -5.2192     0.0537 N.am    
  11 C11            2.0216    -6.4559     0.0513 C.3     
  12 C12            2.9603    -7.5365    -0.5410 C.3     
  13 C13            4.3298    -7.1226     0.0595 C.3     
  14 C14            4.2488    -5.5816     0.0697 C.3     
  15 C15           -1.8086    -3.1068    -0.0063 C.ar    
  16 C16           -3.1317    -2.6993     0.1013 C.ar    
  17 C17           -4.1443    -3.6386     0.1010 C.ar    
  18 C18           -3.8415    -4.9837    -0.0060 C.ar    
  19 C19           -2.5249    -5.3927    -0.1133 C.ar    
  20 C20           -1.5082    -4.4578    -0.1197 C.ar    
  21 C21           -4.9487    -6.0060    -0.0050 C.3     
  22 F22           -5.3721    -6.2361    -1.3184 F       
  23 F23           -4.4792    -7.2014     0.5498 F       
  24 F24           -6.0227    -5.5296     0.7544 F       
  25 H25            1.0044     1.8799    -0.0321 H       
  26 H26           -0.5336     1.8509    -0.9277 H       
  27 H27           -0.5404     1.8671     0.8521 H       
  28 H28           -2.0550    -0.4439    -0.0327 H       
  29 H29            1.7312    -6.7216     1.0678 H       
  30 H30            1.1392    -6.3344    -0.5768 H       
  31 H31            2.6712    -8.5322    -0.2047 H       
  32 H32            2.9790    -7.4836    -1.6296 H       
  33 H33            4.4413    -7.5132     1.0709 H       
  34 H34            5.1478    -7.4592    -0.5775 H       
  35 H35            4.7442    -5.1766    -0.8127 H       
  36 H36            4.7199    -5.1935     0.9728 H       
  37 H37           -3.3688    -1.6490     0.1856 H       
  38 H38           -5.1735    -3.3224     0.1846 H       
  39 H39           -2.2917    -6.4439    -0.1966 H       
  40 H40           -0.4804    -4.7776    -0.2081 H       
@<TRIPOS>BOND
   1    1    2 1
   2    1   25 1
   3    1   26 1
   4    1   27 1
   5    2    6 1
   6    2    3 2
   7    3    4 1
   8    3   28 1
   9    4    5 1
  10    4   15 1
  11    5    6 1
  12    5    7 2
  13    7    8 1
  14    8    9 2
  15    8   10 am
  16   10   14 1
  17   10   11 1
  18   11   12 1
  19   11   29 1
  20   11   30 1
  21   12   13 1
  22   12   31 1
  23   12   32 1
  24   13   14 1
  25   13   33 1
  26   13   34 1
  27   14   35 1
  28   14   36 1
  29   15   20 ar
  30   15   16 ar
  31   16   17 ar
  32   16   37 1
  33   17   18 ar
  34   17   38 1
  35   18   19 ar
  36   18   21 1
  37   19   20 ar
  38   19   39 1
  39   20   40 1
  40   21   22 1
  41   21   23 1
  42   21   24 1

#	End of record

