#	Name: ASD02030522
#	Creating user name:	WinNT
#	Creation time:	15. 06. 2019 20:15

#	Modifying user name:	WinNT
#	Modification time:	15. 06. 2019 20:15

#	Program:	/corina/corina34_cracker 3.40 0067  02.08.2006

@<TRIPOS>MOLECULE
ASD02030522
  53   56    0    0    0
SMALL
NO_CHARGES


@<TRIPOS>ATOM
   1 N1            -1.3763     0.7124    -2.0590 N.am    
   2 C2            -1.6656    -0.7019    -1.7835 C.3     
   3 C3            -1.8306    -0.8825    -0.2694 C.3     
   4 N4            -2.7616     0.1406     0.2268 N.am    
   5 C5            -2.4723     1.5549    -0.0486 C.3     
   6 C6            -2.3044     1.7359    -1.5579 C.3     
   7 C7            -0.2766     1.0649    -2.7539 C.2     
   8 C8             0.7169     0.0390    -3.1357 C.2     
   9 N9             1.8815     0.2637    -3.7049 N.2     
  10 N10            0.5919    -1.2889    -2.9570 N.2     
  11 C11            1.6788    -1.8483    -3.4243 C.2     
  12 N12            2.4762    -0.8645    -3.8888 N.pl3   
  13 O13           -0.1017     2.2265    -3.0666 O.2     
  14 C14           -3.8613    -0.2119     0.9217 C.2     
  15 C15           -4.2129    -1.6228     1.0667 C.2     
  16 O16           -4.5619     0.6453     1.4288 O.2     
  17 C17           -1.7412     3.1284    -1.8486 C.3     
  18 C18           -3.6597     1.5718    -2.2487 C.3     
  19 C19            3.7380    -1.0398    -4.4730 C.ar    
  20 C20            4.4601     0.0614    -4.9119 C.ar    
  21 C21            5.7047    -0.1149    -5.4874 C.ar    
  22 C22            6.2298    -1.3876    -5.6261 C.ar    
  23 C23            5.5119    -2.4859    -5.1895 C.ar    
  24 C24            4.2706    -2.3152    -4.6087 C.ar    
  25 S25           -3.1305    -2.8901     1.6268 S.3     
  26 Cl26           6.6092     1.2613    -6.0368 Cl      
  27 C27           -4.3515    -4.0706     1.4639 C.2     
  28 C28           -5.4947    -3.5195     1.0138 C.2     
  29 C29           -5.4385    -2.1667     0.7938 C.2     
  30 O30           -4.1920    -5.3862     1.7485 O.3     
  31 C31           -2.9062    -5.7974     2.2171 C.3     
  32 H32           -2.5866    -0.9921    -2.2891 H       
  33 H33           -0.8405    -1.3198    -2.1379 H       
  34 H34           -2.2318    -1.8743    -0.0609 H       
  35 H35           -0.8638    -0.7658     0.2204 H       
  36 H36           -3.2974     2.1728     0.3058 H       
  37 H37           -1.5513     1.8451     0.4569 H       
  38 H38            1.8988    -2.9056    -3.4336 H       
  39 H39           -0.6853     3.1567    -1.5797 H       
  40 H40           -1.8520     3.3509    -2.9099 H       
  41 H41           -2.2852     3.8698    -1.2632 H       
  42 H42           -4.3540     2.3214    -1.8692 H       
  43 H43           -3.5374     1.7011    -3.3240 H       
  44 H44           -4.0531     0.5759    -2.0449 H       
  45 H45            4.0500     1.0547    -4.8043 H       
  46 H46            7.2019    -1.5235    -6.0765 H       
  47 H47            5.9241    -3.4781    -5.2994 H       
  48 H48            3.7109    -3.1736    -4.2677 H       
  49 H49           -6.3901    -4.0986     0.8427 H       
  50 H50           -6.2768    -1.5890     0.4333 H       
  51 H51           -2.6691    -5.2673     3.1395 H       
  52 H52           -2.9147    -6.8707     2.4067 H       
  53 H53           -2.1540    -5.5677     1.4624 H       
@<TRIPOS>BOND
   1    1    2 1
   2    1    7 am
   3    1    6 1
   4    2    3 1
   5    2   32 1
   6    2   33 1
   7    3    4 1
   8    3   34 1
   9    3   35 1
  10    4    5 1
  11    4   14 am
  12    5    6 1
  13    5   36 1
  14    5   37 1
  15    6   17 1
  16    6   18 1
  17    7    8 1
  18    7   13 2
  19    8    9 2
  20    8   10 1
  21    9   12 1
  22   10   11 2
  23   11   12 1
  24   11   38 1
  25   12   19 1
  26   14   15 1
  27   14   16 2
  28   15   25 1
  29   15   29 2
  30   17   39 1
  31   17   40 1
  32   17   41 1
  33   18   42 1
  34   18   43 1
  35   18   44 1
  36   19   20 ar
  37   19   24 ar
  38   20   21 ar
  39   20   45 1
  40   21   22 ar
  41   21   26 1
  42   22   23 ar
  43   22   46 1
  44   23   24 ar
  45   23   47 1
  46   24   48 1
  47   25   27 1
  48   27   28 2
  49   27   30 1
  50   28   29 1
  51   28   49 1
  52   29   50 1
  53   30   31 1
  54   31   51 1
  55   31   52 1
  56   31   53 1

#	End of record

