#	Name: ASD01840354
#	Creating user name:	WinNT
#	Creation time:	15. 06. 2019 19:37

#	Modifying user name:	WinNT
#	Modification time:	15. 06. 2019 19:37

#	Program:	/corina/corina34_cracker 3.40 0067  02.08.2006

@<TRIPOS>MOLECULE
ASD01840354
  49   52    0    0    0
SMALL
NO_CHARGES


@<TRIPOS>ATOM
   1 C1             0.5833     2.1710    -1.2723 C.ar    
   2 C2             0.6462     0.9038    -1.8090 C.ar    
   3 N3             1.6367     0.0914    -1.4827 N.ar    
   4 N4             2.5681     0.4291    -0.6711 N.ar    
   5 C5             1.6017     2.5636    -0.3741 C.ar    
   6 C6             1.7938     3.8147     0.3357 C.2     
   7 C7             2.6089     1.6311    -0.0915 C.ar    
   8 S8             3.7664     2.3191     1.0387 S.3     
   9 C9             2.8966     3.8384     1.1245 C.2     
  10 C10           -0.5350     3.1131    -1.6368 C.3     
  11 C11           -0.4179     0.4421    -2.7711 C.3     
  12 N12            0.9260     4.8918     0.2172 N.pl3   
  13 C13            3.3070     4.9817     1.9384 C.2     
  14 O14            2.5843     5.9575     2.0257 O.2     
  15 N15            4.4854     4.9552     2.5920 N.am    
  16 C16            5.5265     3.9143     2.5045 C.3     
  17 C17            6.8661     4.5827     2.8658 C.3     
  18 C18            6.5068     6.0505     3.1930 C.3     
  19 C19            5.0026     5.9689     3.5402 C.3     
  20 C20            7.3032     6.5445     4.3731 C.ar    
  21 C21            8.1471     7.6305     4.2304 C.ar    
  22 C22            8.8782     8.0852     5.3107 C.ar    
  23 C23            8.7652     7.4514     6.5395 C.ar    
  24 C24            7.9178     6.3620     6.6802 C.ar    
  25 C25            7.1845     5.9146     5.5982 C.ar    
  26 O26            9.4837     7.8966     7.6037 O.3     
  27 C27            9.3173     7.1957     8.8378 C.3     
  28 H28           -1.3187     3.0564    -0.8813 H       
  29 H29           -0.1505     4.1318    -1.6857 H       
  30 H30           -0.9448     2.8325    -2.6071 H       
  31 H31           -0.1199     0.6914    -3.7895 H       
  32 H32           -0.5436    -0.6371    -2.6832 H       
  33 H33           -1.3598     0.9379    -2.5364 H       
  34 H34            0.0240     4.7539    -0.1119 H       
  35 H35            1.2216     5.7822     0.4636 H       
  36 H36            5.3097     3.1121     3.2100 H       
  37 H37            5.5710     3.5181     1.4901 H       
  38 H38            7.3085     4.0981     3.7362 H       
  39 H39            7.5510     4.5402     2.0189 H       
  40 H40            6.6653     6.6895     2.3243 H       
  41 H41            4.5180     6.9314     3.3763 H       
  42 H42            4.8650     5.6381     4.5696 H       
  43 H43            8.2350     8.1233     3.2734 H       
  44 H44            9.5375     8.9333     5.1986 H       
  45 H45            7.8281     5.8669     7.6358 H       
  46 H46            6.5211     5.0695     5.7083 H       
  47 H47            8.2734     7.2473     9.1471 H       
  48 H48            9.6059     6.1530     8.7052 H       
  49 H49            9.9458     7.6521     9.6025 H       
@<TRIPOS>BOND
   1    1    2 ar
   2    1    5 ar
   3    1   10 1
   4    2   11 1
   5    2    3 ar
   6    3    4 ar
   7    4    7 ar
   8    5    7 ar
   9    5    6 1
  10    6    9 2
  11    6   12 1
  12    7    8 1
  13    8    9 1
  14    9   13 1
  15   10   28 1
  16   10   29 1
  17   10   30 1
  18   11   31 1
  19   11   32 1
  20   11   33 1
  21   12   34 1
  22   12   35 1
  23   13   14 2
  24   13   15 am
  25   15   16 1
  26   15   19 1
  27   16   17 1
  28   16   36 1
  29   16   37 1
  30   17   18 1
  31   17   38 1
  32   17   39 1
  33   18   19 1
  34   18   20 1
  35   18   40 1
  36   19   41 1
  37   19   42 1
  38   20   21 ar
  39   20   25 ar
  40   21   22 ar
  41   21   43 1
  42   22   23 ar
  43   22   44 1
  44   23   24 ar
  45   23   26 1
  46   24   25 ar
  47   24   45 1
  48   25   46 1
  49   26   27 1
  50   27   47 1
  51   27   48 1
  52   27   49 1

#	End of record

