#	Name: ASD03731696
#	Creating user name:	WinNT
#	Creation time:	15. 06. 2019 20:46

#	Modifying user name:	WinNT
#	Modification time:	15. 06. 2019 20:46

#	Program:	/corina/corina34_cracker 3.40 0067  02.08.2006

@<TRIPOS>MOLECULE
ASD03731696
  33   34    0    0    0
SMALL
NO_CHARGES


@<TRIPOS>ATOM
   1 C1            -0.4030     1.1037    -1.9604 C.2     
   2 C2            -0.2819    -0.2743    -1.4501 C.ar    
   3 C3             0.9018    -0.9949    -1.6484 C.ar    
   4 C4             1.0105    -2.2845    -1.1682 C.ar    
   5 C5            -0.0518    -2.8666    -0.4898 C.ar    
   6 C6            -1.2312    -2.1533    -0.2909 C.ar    
   7 C7            -1.3468    -0.8633    -0.7615 C.ar    
   8 O8             0.5261     1.6159    -2.5546 O.2     
   9 N9            -1.5456     1.7936    -1.7732 N.am    
  10 S10           -1.6817     3.3413    -2.3464 S.o2    
  11 O11           -2.9839     3.7487    -1.9494 O.2     
  12 O12           -0.5248     4.0013    -1.8514 O.2     
  13 C13           -1.5918     3.1656    -4.1497 C.3     
  14 F14           -2.2617    -2.7250     0.3697 F       
  15 F15            1.9357    -0.4293    -2.3088 F       
  16 O16            0.0593    -4.1350    -0.0193 O.3     
  17 C17            1.2617    -4.7566    -0.1387 C.ar    
  18 C18            2.2133    -4.6274     0.8629 C.ar    
  19 C19            3.4356    -5.2608     0.7388 C.ar    
  20 C20            3.7100    -6.0232    -0.3834 C.ar    
  21 C21            2.7632    -6.1525    -1.3822 C.ar    
  22 C22            1.5377    -5.5262    -1.2597 C.ar    
  23 Cl23           4.6274    -5.0996     1.9907 Cl      
  24 H24            1.9231    -2.8417    -1.3208 H       
  25 H25           -2.2602    -0.3095    -0.6024 H       
  26 H26           -2.2882     1.3836    -1.3028 H       
  27 H27           -2.4082     2.5309    -4.4941 H       
  28 H28           -1.6741     4.1479    -4.6149 H       
  29 H29           -0.6390     2.7126    -4.4235 H       
  30 H30            1.9993    -4.0322     1.7383 H       
  31 H31            4.6654    -6.5175    -0.4790 H       
  32 H32            2.9797    -6.7476    -2.2570 H       
  33 H33            0.7966    -5.6321    -2.0381 H       
@<TRIPOS>BOND
   1    1    2 1
   2    1    8 2
   3    1    9 am
   4    2    3 ar
   5    2    7 ar
   6    3    4 ar
   7    3   15 1
   8    4    5 ar
   9    4   24 1
  10    5    6 ar
  11    5   16 1
  12    6    7 ar
  13    6   14 1
  14    7   25 1
  15    9   10 am
  16    9   26 1
  17   10   11 2
  18   10   12 2
  19   10   13 1
  20   13   27 1
  21   13   28 1
  22   13   29 1
  23   16   17 1
  24   17   18 ar
  25   17   22 ar
  26   18   19 ar
  27   18   30 1
  28   19   20 ar
  29   19   23 1
  30   20   21 ar
  31   20   31 1
  32   21   22 ar
  33   21   32 1
  34   22   33 1

#	End of record

