#	Name: ASD01884136
#	Creating user name:	WinNT
#	Creation time:	15. 06. 2019 19:47

#	Modifying user name:	WinNT
#	Modification time:	15. 06. 2019 19:47

#	Program:	/corina/corina34_cracker 3.40 0067  02.08.2006

@<TRIPOS>MOLECULE
ASD01884136
  37   39    0    0    0
SMALL
NO_CHARGES


@<TRIPOS>ATOM
   1 C1            -0.0170     1.4047     0.0098 C.ar    
   2 C2             0.0021    -0.0041     0.0020 C.ar    
   3 C3            -1.2187    -0.6777     0.0100 C.ar    
   4 C4            -2.3892     0.0498     0.0250 C.ar    
   5 N5            -2.3747     1.3712     0.0320 N.ar    
   6 C6            -1.2508     2.0590     0.0309 C.ar    
   7 Br7           -1.3089     3.9491     0.0418 Br      
   8 C8             1.2050     2.1512     0.0021 C.1     
   9 N9             2.1744     2.7434    -0.0040 N.1     
  10 N10            1.2003    -0.7005    -0.0136 N.3     
  11 C11            1.3225    -1.5639     1.1679 C.3     
  12 C12            2.7126    -2.2036     1.1923 C.3     
  13 C13            2.9143    -3.0234    -0.0851 C.3     
  14 C14            2.7340    -2.1110    -1.3015 C.3     
  15 C15            1.3433    -1.4740    -1.2536 C.3     
  16 C16            4.3037    -3.6069    -0.0949 C.ar    
  17 C17            4.4773    -4.9776    -0.1410 C.ar    
  18 C18            5.7518    -5.5129    -0.1499 C.ar    
  19 C19            6.8526    -4.6775    -0.1132 C.ar    
  20 C20            6.6789    -3.3069    -0.0680 C.ar    
  21 C21            5.4045    -2.7714    -0.0634 C.ar    
  22 H22           -1.2468    -1.7573     0.0041 H       
  23 H23           -3.3360    -0.4697     0.0309 H       
  24 H24            1.1811    -0.9679     2.0695 H       
  25 H25            0.5638    -2.3454     1.1267 H       
  26 H26            3.4714    -1.4231     1.2474 H       
  27 H27            2.7975    -2.8566     2.0609 H       
  28 H28            2.1799    -3.8280    -0.1213 H       
  29 H29            3.4931    -1.3290    -1.2856 H       
  30 H30            2.8342    -2.6977    -2.2146 H       
  31 H31            0.5844    -2.2559    -1.2835 H       
  32 H32            1.2170    -0.8126    -2.1108 H       
  33 H33            3.6173    -5.6302    -0.1697 H       
  34 H34            5.8874    -6.5837    -0.1852 H       
  35 H35            7.8483    -5.0958    -0.1194 H       
  36 H36            7.5390    -2.6543    -0.0389 H       
  37 H37            5.2688    -1.7005    -0.0319 H       
@<TRIPOS>BOND
   1    1    2 ar
   2    1    8 1
   3    1    6 ar
   4    2    3 ar
   5    2   10 1
   6    3    4 ar
   7    3   22 1
   8    4    5 ar
   9    4   23 1
  10    5    6 ar
  11    6    7 1
  12    8    9 3
  13   10   11 1
  14   10   15 1
  15   11   12 1
  16   11   24 1
  17   11   25 1
  18   12   13 1
  19   12   26 1
  20   12   27 1
  21   13   14 1
  22   13   16 1
  23   13   28 1
  24   14   15 1
  25   14   29 1
  26   14   30 1
  27   15   31 1
  28   15   32 1
  29   16   17 ar
  30   16   21 ar
  31   17   18 ar
  32   17   33 1
  33   18   19 ar
  34   18   34 1
  35   19   20 ar
  36   19   35 1
  37   20   21 ar
  38   20   36 1
  39   21   37 1

#	End of record

