#	Name: ASD01912612
#	Creating user name:	WinNT
#	Creation time:	15. 06. 2019 20:00

#	Modifying user name:	WinNT
#	Modification time:	15. 06. 2019 20:00

#	Program:	/corina/corina34_cracker 3.40 0067  02.08.2006

@<TRIPOS>MOLECULE
ASD01912612
  26   27    0    0    0
SMALL
NO_CHARGES


@<TRIPOS>ATOM
   1 C1            -0.0165     1.3679     0.0096 C.2     
   2 C2             0.0021    -0.0041     0.0020 C.2     
   3 C3            -1.1367    -0.8392     0.0084 C.2     
   4 C4            -0.9726    -2.3372    -0.0012 C.3     
   5 O5            -2.2483    -0.3501     0.0216 O.2     
   6 C6            -2.3302    -2.9913     0.0082 C.2     
   7 C7            -2.4400    -4.4588     0.0014 C.ar    
   8 O8            -3.3321    -2.3084     0.0215 O.2     
   9 C9            -3.6981    -5.0696     0.0101 C.ar    
  10 S10            1.6716    -0.5554    -0.0169 S.3     
  11 C11            2.2512     1.0492    -0.0138 C.2     
  12 C12            1.2372     1.9265     0.0006 C.2     
  13 Cl13           1.4916     3.6437     0.0068 Cl      
  14 C14           -3.7926    -6.4452     0.0032 C.ar    
  15 C15           -2.6467    -7.2212    -0.0120 C.ar    
  16 C16           -1.3980    -6.6242    -0.0202 C.ar    
  17 C17           -1.2869    -5.2498    -0.0197 C.ar    
  18 H18           -0.9263     1.9498     0.0172 H       
  19 H19           -0.4308    -2.6376    -0.8980 H       
  20 H20           -0.4138    -2.6471     0.8818 H       
  21 H21           -4.5932    -4.4654     0.0227 H       
  22 H22            3.2961     1.3222    -0.0223 H       
  23 H23           -4.7634    -6.9184     0.0099 H       
  24 H24           -2.7272    -8.2981    -0.0170 H       
  25 H25           -0.5084    -7.2365    -0.0313 H       
  26 H26           -0.3118    -4.7855    -0.0261 H       
@<TRIPOS>BOND
   1    1    2 2
   2    1   12 1
   3    1   18 1
   4    2    3 1
   5    2   10 1
   6    3    4 1
   7    3    5 2
   8    4    6 1
   9    4   19 1
  10    4   20 1
  11    6    7 1
  12    6    8 2
  13    7    9 ar
  14    7   17 ar
  15    9   14 ar
  16    9   21 1
  17   10   11 1
  18   11   12 2
  19   11   22 1
  20   12   13 1
  21   14   15 ar
  22   14   23 1
  23   15   16 ar
  24   15   24 1
  25   16   17 ar
  26   16   25 1
  27   17   26 1

#	End of record

