#	Name: ASD01209197
#	Creating user name:	WinNT
#	Creation time:	15. 06. 2019 19:11

#	Modifying user name:	WinNT
#	Modification time:	15. 06. 2019 19:11

#	Program:	/corina/corina34_cracker 3.40 0067  02.08.2006

@<TRIPOS>MOLECULE
ASD01209197
  66   68    0    0    0
SMALL
NO_CHARGES


@<TRIPOS>ATOM
   1 C1             0.4933     0.9005     0.5991 C.ar    
   2 C2             0.6464    -0.4750     0.4965 C.ar    
   3 C3             1.7976    -1.0058    -0.0617 C.ar    
   4 C4             2.8038    -0.1554    -0.5215 C.ar    
   5 C5             2.6455     1.2267    -0.4168 C.ar    
   6 C6             1.4912     1.7493     0.1432 C.ar    
   7 O7            -0.3342    -1.3022     0.9446 O.3     
   8 C8            -0.1506    -1.9197     2.1410 C.ar    
   9 C9             0.9938    -1.6686     2.8844 C.ar    
  10 C10           -1.1099    -2.7981     2.6242 C.ar    
  11 C11           -0.9210    -3.4242     3.8410 C.ar    
  12 C12            0.2226    -3.1758     4.5775 C.ar    
  13 C13            1.1778    -2.2973     4.1005 C.ar    
  14 S14            0.4598    -3.9752     6.1297 S.o2    
  15 C15            1.3314    -5.5121     5.7188 C.3     
  16 O16            1.3124    -3.0958     6.8501 O.2     
  17 O17           -0.8570    -4.2551     6.5846 O.2     
  18 O18            1.3358     3.0956     0.2452 O.3     
  19 C19            0.0824     3.5682     0.7428 C.3     
  20 C20           -0.1587     4.9948     0.2454 C.3     
  21 O21            0.8241     5.8674     0.8066 O.3     
  22 C22            0.6882     7.2316     0.4034 C.3     
  23 C23            0.1045     3.5584     2.2726 C.3     
  24 C24            4.0345    -0.7175    -1.1175 C.2     
  25 N25            4.1857    -2.0530    -1.2174 N.am    
  26 O26            4.9100     0.0249    -1.5176 O.2     
  27 C27            5.3517    -2.5856    -1.7821 C.2     
  28 N28            5.6204    -3.8608    -1.9370 N.2     
  29 N29            6.8808    -3.9717    -2.5380 N.pl3   
  30 C30            7.3595    -2.7258    -2.7388 C.2     
  31 C31            6.4349    -1.8483    -2.2871 C.2     
  32 C32            7.5605    -5.2215    -2.8876 C.3     
  33 P33            7.1058    -5.7063    -4.5851 P.3     
  34 O34            7.4044    -4.5927    -5.5130 O.2     
  35 C35            8.0640    -7.1781    -5.0740 C.3     
  36 C36            5.3251    -6.0912    -4.6507 C.3     
  37 H37           -0.4073     1.3113     1.0310 H       
  38 H38            1.9164    -2.0764    -0.1406 H       
  39 H39            3.4221     1.8884    -0.7711 H       
  40 H40            1.7403    -0.9824     2.5123 H       
  41 H41           -2.0036    -2.9919     2.0496 H       
  42 H42           -1.6674    -4.1080     4.2175 H       
  43 H43            2.0703    -2.1053     4.6776 H       
  44 H44            2.2785    -5.2744     5.2345 H       
  45 H45            1.5216    -6.0771     6.6313 H       
  46 H46            0.7177    -6.1085     5.0436 H       
  47 H47           -0.7178     2.9192     0.3869 H       
  48 H48           -0.0862     5.0176    -0.8420 H       
  49 H49           -1.1524     5.3229     0.5503 H       
  50 H50           -0.2879     7.6061     0.7116 H       
  51 H51            1.4708     7.8285     0.8718 H       
  52 H52            0.7782     7.3007    -0.6807 H       
  53 H53           -0.8516     3.9189     2.6522 H       
  54 H54            0.2762     2.5420     2.6270 H       
  55 H55            0.9047     4.2074     2.6286 H       
  56 H56            3.4870    -2.6454    -0.8982 H       
  57 H57            8.3105    -2.4742    -3.1845 H       
  58 H58            6.5178    -0.7717    -2.3054 H       
  59 H59            8.6393    -5.0774    -2.8275 H       
  60 H60            7.2594    -6.0055    -2.1928 H       
  61 H61            7.8441    -7.9983    -4.3906 H       
  62 H62            7.7921    -7.4680    -6.0889 H       
  63 H63            9.1287    -6.9480    -5.0347 H       
  64 H64            4.7522    -5.2112    -4.3584 H       
  65 H65            5.0532    -6.3811    -5.6657 H       
  66 H66            5.1052    -6.9114    -3.9673 H       
@<TRIPOS>BOND
   1    1    2 ar
   2    1    6 ar
   3    1   37 1
   4    2    3 ar
   5    2    7 1
   6    3    4 ar
   7    3   38 1
   8    4    5 ar
   9    4   24 1
  10    5    6 ar
  11    5   39 1
  12    6   18 1
  13    7    8 1
  14    8    9 ar
  15    8   10 ar
  16    9   13 ar
  17    9   40 1
  18   10   11 ar
  19   10   41 1
  20   11   12 ar
  21   11   42 1
  22   12   13 ar
  23   12   14 1
  24   13   43 1
  25   14   15 1
  26   14   16 2
  27   14   17 2
  28   15   44 1
  29   15   45 1
  30   15   46 1
  31   18   19 1
  32   19   20 1
  33   19   23 1
  34   19   47 1
  35   20   21 1
  36   20   48 1
  37   20   49 1
  38   21   22 1
  39   22   50 1
  40   22   51 1
  41   22   52 1
  42   23   53 1
  43   23   54 1
  44   23   55 1
  45   24   25 am
  46   24   26 2
  47   25   27 1
  48   25   56 1
  49   27   28 2
  50   27   31 1
  51   28   29 1
  52   29   30 1
  53   29   32 1
  54   30   31 2
  55   30   57 1
  56   31   58 1
  57   32   33 1
  58   32   59 1
  59   32   60 1
  60   33   34 2
  61   33   35 1
  62   33   36 1
  63   35   61 1
  64   35   62 1
  65   35   63 1
  66   36   64 1
  67   36   65 1
  68   36   66 1

#	End of record

