#	Name: ASD01148203
#	Creating user name:	WinNT
#	Creation time:	15. 06. 2019 19:02

#	Modifying user name:	WinNT
#	Modification time:	15. 06. 2019 19:02

#	Program:	/corina/corina34_cracker 3.40 0067  02.08.2006

@<TRIPOS>MOLECULE
ASD01148203
  48   51    0    0    0
SMALL
NO_CHARGES


@<TRIPOS>ATOM
   1 C1            -0.0167     1.3779     0.0096 C.ar    
   2 C2             0.0021    -0.0041     0.0020 C.ar    
   3 C3             1.2086    -0.6790    -0.0132 C.ar    
   4 C4             2.3961     0.0283    -0.0212 C.ar    
   5 C5             2.3773     1.4107    -0.0145 C.ar    
   6 C6             1.1711     2.0854     0.0021 C.ar    
   7 C7             3.6720     2.1819    -0.0223 C.3     
   8 O8             4.6970     1.4625    -0.7374 O.3     
   9 C9             3.5436     3.4713    -0.8682 C.3     
  10 C10            4.0476     3.0252    -2.2276 C.2     
  11 N11            4.6725     1.9053    -2.0799 N.2     
  12 C12            3.8558     3.7473    -3.5006 C.ar    
  13 C13            4.3748     3.2220    -4.6868 C.ar    
  14 C14            3.1503     4.9531    -3.5204 C.ar    
  15 C15            2.9715     5.6265    -4.7076 C.ar    
  16 C16            3.4954     5.1041    -5.8928 C.ar    
  17 C17            4.1960     3.8954    -5.8739 C.ar    
  18 C18            3.3035     5.8269    -7.1670 C.2     
  19 O19            2.6897     6.8759    -7.1842 O.2     
  20 N20            3.8089     5.3230    -8.3103 N.am    
  21 C21            4.1227     2.5042     1.4038 C.3     
  22 F22            4.2968     1.3140     2.1181 F       
  23 F23            5.3329     3.2050     1.3633 F       
  24 F24            3.1506     3.2884     2.0341 F       
  25 C25            3.6286     6.0021    -9.5076 C.ar    
  26 N26            4.1319     5.4928   -10.6216 N.ar    
  27 N27            2.9527     7.1410    -9.5091 N.ar    
  28 C28            2.7627     7.8131   -10.6323 C.ar    
  29 C29            3.2808     7.3116   -11.8161 C.ar    
  30 C30            3.9782     6.1142   -11.7791 C.ar    
  31 C31            1.2291    -2.1858    -0.0205 C.3     
  32 F32           -0.0834    -2.6701    -0.0097 F       
  33 F33            1.8834    -2.6378    -1.1715 F       
  34 F34            1.9062    -2.6485     1.1130 F       
  35 H35           -0.9592     1.9051     0.0170 H       
  36 H36           -0.9258    -0.5567     0.0083 H       
  37 H37            3.3386    -0.4989    -0.0324 H       
  38 H38            1.1565     3.1653     0.0077 H       
  39 H39            2.5039     3.7932    -0.9275 H       
  40 H40            4.1727     4.2639    -0.4632 H       
  41 H41            4.9167     2.2879    -4.6722 H       
  42 H42            2.7449     5.3568    -2.6043 H       
  43 H43            2.4258     6.5584    -4.7230 H       
  44 H44            4.6010     3.4917    -6.7901 H       
  45 H45            4.2987     4.4858    -8.2965 H       
  46 H46            2.2104     8.7412   -10.6272 H       
  47 H47            3.1402     7.8397   -12.7476 H       
  48 H48            4.3949     5.6961   -12.6835 H       
@<TRIPOS>BOND
   1    1    2 ar
   2    1    6 ar
   3    1   35 1
   4    2    3 ar
   5    2   36 1
   6    3    4 ar
   7    3   31 1
   8    4    5 ar
   9    4   37 1
  10    5    6 ar
  11    5    7 1
  12    6   38 1
  13    7    8 1
  14    7    9 1
  15    7   21 1
  16    8   11 1
  17    9   10 1
  18    9   39 1
  19    9   40 1
  20   10   11 2
  21   10   12 1
  22   12   13 ar
  23   12   14 ar
  24   13   17 ar
  25   13   41 1
  26   14   15 ar
  27   14   42 1
  28   15   16 ar
  29   15   43 1
  30   16   17 ar
  31   16   18 1
  32   17   44 1
  33   18   19 2
  34   18   20 am
  35   20   25 1
  36   20   45 1
  37   21   22 1
  38   21   23 1
  39   21   24 1
  40   25   26 ar
  41   25   27 ar
  42   26   30 ar
  43   27   28 ar
  44   28   29 ar
  45   28   46 1
  46   29   30 ar
  47   29   47 1
  48   30   48 1
  49   31   32 1
  50   31   33 1
  51   31   34 1

#	End of record

