#	Name: ASD04910017
#	Creating user name:	WinNT
#	Creation time:	15. 06. 2019 20:55

#	Modifying user name:	WinNT
#	Modification time:	15. 06. 2019 20:55

#	Program:	/corina/corina34_cracker 3.40 0067  02.08.2006

@<TRIPOS>MOLECULE
ASD04910017
  58   60    0    0    0
SMALL
NO_CHARGES


@<TRIPOS>ATOM
   1 C1            -0.2752     1.4333     0.2429 C.2     
   2 C2            -0.2139    -0.0720     0.2066 C.3     
   3 C3             1.2472    -0.5215     0.1436 C.3     
   4 O4             0.7450     2.0802     0.2206 O.2     
   5 O5            -1.4635     2.0555     0.2944 O.3     
   6 C6             2.4998    -2.6095     0.0511 C.2     
   7 C7             2.5600    -4.0863     0.0156 C.ar    
   8 C8             3.7937    -4.7363    -0.0438 C.ar    
   9 C9             3.8429    -6.1146    -0.0762 C.ar    
  10 C10            2.6727    -6.8525    -0.0506 C.ar    
  11 C11            1.4465    -6.2143     0.0082 C.ar    
  12 C12            1.3835    -4.8367     0.0470 C.ar    
  13 O13            3.5262    -1.9587     0.0287 O.2     
  14 N14            1.3069    -1.9849     0.1084 N.am    
  15 C15            2.7341    -8.3578    -0.0873 C.3     
  16 C16            2.5563    -8.9101     1.3284 C.3     
  17 C17            2.6186   -10.4384     1.2911 C.3     
  18 O18            1.6915    -8.8566    -0.9276 O.3     
  19 C19            1.9543    -9.9902    -1.6303 C.ar    
  20 C20            0.9601   -10.5739    -2.4022 C.ar    
  21 C21            1.2267   -11.7250    -3.1164 C.ar    
  22 C22            2.4899   -12.2985    -3.0621 C.ar    
  23 C23            3.4844   -11.7141    -2.2895 C.ar    
  24 C24            3.2184   -10.5600    -1.5799 C.ar    
  25 N25            2.7612   -13.4684    -3.7873 N.pl3   
  26 N26            1.8572   -14.1609    -4.6031 N.2     
  27 C27            2.4746   -15.1983    -5.1093 C.2     
  28 C28            3.7900   -15.2003    -4.6330 C.2     
  29 C29            3.9430   -14.1238    -3.8270 C.2     
  30 C30            4.8511   -16.2179    -4.9641 C.3     
  31 F31            4.3216   -17.1780    -5.8330 F       
  32 F32            5.9339   -15.5796    -5.5783 F       
  33 F33            5.2829   -16.8408    -3.7882 F       
  34 C34            3.6727    -8.3760     2.2281 C.3     
  35 H35           -0.6800    -0.4764     1.1051 H       
  36 H36           -0.7443    -0.4362    -0.6732 H       
  37 H37            1.7134    -0.1171    -0.7549 H       
  38 H38            1.7777    -0.1574     1.0235 H       
  39 H39           -1.4523     3.0222     0.3161 H       
  40 H40            4.7078    -4.1615    -0.0645 H       
  41 H41            4.7969    -6.6188    -0.1221 H       
  42 H42            0.5368    -6.7961     0.0280 H       
  43 H43            0.4259    -4.3399     0.0973 H       
  44 H44            0.4878    -2.5042     0.1263 H       
  45 H45            3.7003    -8.6725    -0.4815 H       
  46 H46            1.5901    -8.5954     1.7225 H       
  47 H47            3.5849   -10.7532     0.8969 H       
  48 H48            2.4920   -10.8319     2.2997 H       
  49 H49            1.8233   -10.8189     0.6501 H       
  50 H50           -0.0226   -10.1279    -2.4442 H       
  51 H51            0.4527   -12.1795    -3.7170 H       
  52 H52            4.4673   -12.1598    -2.2469 H       
  53 H53            3.9932   -10.1028    -0.9824 H       
  54 H54            2.0427   -15.9273    -5.7789 H       
  55 H55            4.8461   -13.8408    -3.3068 H       
  56 H56            3.6283    -7.2872     2.2547 H       
  57 H57            3.5460    -8.7695     3.2367 H       
  58 H58            4.6389    -8.6908     1.8339 H       
@<TRIPOS>BOND
   1    1    2 1
   2    1    4 2
   3    1    5 1
   4    2    3 1
   5    2   35 1
   6    2   36 1
   7    3   14 1
   8    3   37 1
   9    3   38 1
  10    5   39 1
  11    6    7 1
  12    6   13 2
  13    6   14 am
  14    7    8 ar
  15    7   12 ar
  16    8    9 ar
  17    8   40 1
  18    9   10 ar
  19    9   41 1
  20   10   11 ar
  21   10   15 1
  22   11   12 ar
  23   11   42 1
  24   12   43 1
  25   14   44 1
  26   15   16 1
  27   15   18 1
  28   15   45 1
  29   16   17 1
  30   16   34 1
  31   16   46 1
  32   17   47 1
  33   17   48 1
  34   17   49 1
  35   18   19 1
  36   19   20 ar
  37   19   24 ar
  38   20   21 ar
  39   20   50 1
  40   21   22 ar
  41   21   51 1
  42   22   23 ar
  43   22   25 1
  44   23   24 ar
  45   23   52 1
  46   24   53 1
  47   25   26 1
  48   25   29 1
  49   26   27 2
  50   27   28 1
  51   27   54 1
  52   28   29 2
  53   28   30 1
  54   29   55 1
  55   30   31 1
  56   30   32 1
  57   30   33 1
  58   34   56 1
  59   34   57 1
  60   34   58 1

#	End of record

