#	Name: ASD08170423
#	Creating user name:	WinNT
#	Creation time:	15. 06. 2019 21:17

#	Modifying user name:	WinNT
#	Modification time:	15. 06. 2019 21:17

#	Program:	/corina/corina34_cracker 3.40 0067  02.08.2006

@<TRIPOS>MOLECULE
ASD08170423
  41   42    0    0    0
SMALL
NO_CHARGES


@<TRIPOS>ATOM
   1 N1            -0.0155     1.2947     0.0092 N.2     
   2 C2             0.0021    -0.0041     0.0020 C.2     
   3 S3             1.6320    -0.5310    -0.0164 S.3     
   4 C4             2.1557     1.1534    -0.0123 C.2     
   5 N5             1.0945     1.8960     0.0018 N.2     
   6 C6             7.9570     3.1008     4.2506 C.2     
   7 S7             7.8334     4.5556     5.2404 S.3     
   8 C8             8.6093     3.7258     6.5226 C.2     
   9 N9             8.8778     2.5160     6.1334 N.2     
  10 N10            8.5379     2.1879     4.9626 N.2     
  11 N11           -1.1168    -0.8300     0.0087 N.am    
  12 C12           -2.3521    -0.2911     0.0233 C.2     
  13 O13           -2.4879     0.9140     0.0307 O.2     
  14 C14           -3.5646    -1.1861     0.0305 C.3     
  15 N15            8.9034     4.2592     7.7729 N.am    
  16 C16            9.5194     3.5007     8.7012 C.2     
  17 O17            9.8173     2.3530     8.4462 O.2     
  18 C18            9.8381     4.0787    10.0559 C.3     
  19 C19            3.5816     1.6410    -0.0229 C.3     
  20 C20            4.0775     1.7984     1.4160 C.3     
  21 C21            5.5251     2.2933     1.4053 C.3     
  22 C22            6.0210     2.4507     2.8441 C.3     
  23 C23            7.4687     2.9457     2.8334 C.3     
  24 H24           -1.0082    -1.7939     0.0028 H       
  25 H25           -3.8469    -1.4070     1.0599 H       
  26 H26           -4.3903    -0.6833    -0.4728 H       
  27 H27           -3.3333    -2.1153    -0.4902 H       
  28 H28            8.6652     5.1771     7.9768 H       
  29 H29            9.0011     3.9033    10.7318 H       
  30 H30           10.7329     3.6001    10.4538 H       
  31 H31           10.0108     5.1509     9.9621 H       
  32 H32            4.2086     0.9191    -0.5463 H       
  33 H33            3.6328     2.6033    -0.5321 H       
  34 H34            3.4505     2.5202     1.9394 H       
  35 H35            4.0263     0.8360     1.9252 H       
  36 H36            6.1521     1.5715     0.8818 H       
  37 H37            5.5763     3.2557     0.8960 H       
  38 H38            5.3940     3.1726     3.3675 H       
  39 H39            5.9698     1.4884     3.3534 H       
  40 H40            7.5198     3.9081     2.3241 H       
  41 H41            8.0956     2.2239     2.3100 H       
@<TRIPOS>BOND
   1    1    2 2
   2    1    5 1
   3    2    3 1
   4    2   11 1
   5    3    4 1
   6    4    5 2
   7    4   19 1
   8    6    7 1
   9    6   23 1
  10    6   10 2
  11    7    8 1
  12    8    9 2
  13    8   15 1
  14    9   10 1
  15   11   12 am
  16   11   24 1
  17   12   13 2
  18   12   14 1
  19   14   25 1
  20   14   26 1
  21   14   27 1
  22   15   16 am
  23   15   28 1
  24   16   17 2
  25   16   18 1
  26   18   29 1
  27   18   30 1
  28   18   31 1
  29   19   20 1
  30   19   32 1
  31   19   33 1
  32   20   21 1
  33   20   34 1
  34   20   35 1
  35   21   22 1
  36   21   36 1
  37   21   37 1
  38   22   23 1
  39   22   38 1
  40   22   39 1
  41   23   40 1
  42   23   41 1

#	End of record

