#	Name: ASD01884016
#	Creating user name:	WinNT
#	Creation time:	15. 06. 2019 19:47

#	Modifying user name:	WinNT
#	Modification time:	15. 06. 2019 19:47

#	Program:	/corina/corina34_cracker 3.40 0067  02.08.2006

@<TRIPOS>MOLECULE
ASD01884016
  62   66    0    0    0
SMALL
NO_CHARGES


@<TRIPOS>ATOM
   1 C1            -0.0187     1.5258     0.0104 C.3     
   2 C2             0.0021    -0.0041     0.0020 C.3     
   3 C3             0.7421    -0.5109     1.2415 C.3     
   4 C4             0.7628    -2.0407     1.2331 C.3     
   5 N5             1.4714    -2.5260     2.4200 N.am    
   6 C6             2.9127    -2.7367     2.3482 C.3     
   7 C7             3.6373    -2.2748     3.6120 C.3     
   8 N8             2.9254    -2.7821     4.7888 N.pl3   
   9 C9             1.5574    -3.0016     4.7722 C.2     
  10 C10            1.1774    -3.4476     6.0055 C.2     
  11 C11            2.3307    -3.5160     6.7939 C.2     
  12 C12            2.3991    -3.9596     8.2325 C.3     
  13 C13            3.3954    -3.1040     6.0168 C.2     
  14 C14            4.8073    -3.0283     6.4516 C.2     
  15 N15            5.8242    -2.6351     5.7266 N.2     
  16 O16            6.8458    -2.6903     6.3781 O.3     
  17 C17            6.5800    -3.1335     7.6110 C.2     
  18 N18            5.2898    -3.3470     7.6753 N.2     
  19 C19            7.5777    -3.3425     8.7210 C.3     
  20 C20            8.6259    -4.3660     8.2784 C.3     
  21 C21            9.6182    -4.6017     9.4214 C.3     
  22 N22           10.1763    -3.3078     9.8374 N.am    
  23 C23            9.2530    -2.2231    10.1974 C.3     
  24 C24            8.2648    -2.0141     9.0457 C.3     
  25 C25           11.5099    -3.1196     9.8882 C.2     
  26 O26           12.2616    -4.0230     9.5889 O.2     
  27 C27           12.0670    -1.7866    10.3169 C.3     
  28 C28           12.7971    -1.7250    11.6600 C.3     
  29 C29           13.5891    -1.6360    10.3540 C.3     
  30 C30            0.7706    -2.7611     3.5544 C.2     
  31 O31           -0.4461    -2.7761     3.5649 O.2     
  32 H32            1.0039     1.9031     0.0027 H       
  33 H33           -0.5459     1.8868    -0.8726 H       
  34 H34           -0.5289     1.8773     0.9072 H       
  35 H35           -1.0205    -0.3814     0.0098 H       
  36 H36            0.5123    -0.3556    -0.8948 H       
  37 H37            1.7647    -0.1336     1.2338 H       
  38 H38            0.2319    -0.1594     2.1383 H       
  39 H39           -0.2598    -2.4180     1.2409 H       
  40 H40            1.2730    -2.3923     0.3363 H       
  41 H41            3.1066    -3.7989     2.1992 H       
  42 H42            3.3072    -2.1855     1.4946 H       
  43 H43            4.6568    -2.6606     3.6089 H       
  44 H44            3.6595    -1.1854     3.6415 H       
  45 H45            0.1739    -3.7000     6.3146 H       
  46 H46            2.5668    -5.0358     8.2733 H       
  47 H47            3.2193    -3.4448     8.7328 H       
  48 H48            1.4606    -3.7189     8.7319 H       
  49 H49            7.0623    -3.7111     9.6079 H       
  50 H50            8.1333    -5.3048     8.0249 H       
  51 H51            9.1588    -3.9872     7.4063 H       
  52 H52            9.1030    -5.0649    10.2629 H       
  53 H53           10.4221    -5.2532     9.0789 H       
  54 H54            8.7080    -2.4923    11.1022 H       
  55 H55            9.8159    -1.3052    10.3670 H       
  56 H56            8.8011    -1.6574     8.1664 H       
  57 H57            7.5152    -1.2788     9.3384 H       
  58 H58           11.4821    -0.9156    10.0212 H       
  59 H59           12.6926    -0.8134    12.2484 H       
  60 H60           12.8745    -2.6487    12.2336 H       
  61 H61           14.1875    -2.5010    10.0683 H       
  62 H62           14.0056    -0.6658    10.0831 H       
@<TRIPOS>BOND
   1    1    2 1
   2    1   32 1
   3    1   33 1
   4    1   34 1
   5    2    3 1
   6    2   35 1
   7    2   36 1
   8    3    4 1
   9    3   37 1
  10    3   38 1
  11    4    5 1
  12    4   39 1
  13    4   40 1
  14    5   30 am
  15    5    6 1
  16    6    7 1
  17    6   41 1
  18    6   42 1
  19    7    8 1
  20    7   43 1
  21    7   44 1
  22    8   13 1
  23    8    9 1
  24    9   10 2
  25    9   30 1
  26   10   11 1
  27   10   45 1
  28   11   12 1
  29   11   13 2
  30   12   46 1
  31   12   47 1
  32   12   48 1
  33   13   14 1
  34   14   18 1
  35   14   15 2
  36   15   16 1
  37   16   17 1
  38   17   18 2
  39   17   19 1
  40   19   24 1
  41   19   20 1
  42   19   49 1
  43   20   21 1
  44   20   50 1
  45   20   51 1
  46   21   22 1
  47   21   52 1
  48   21   53 1
  49   22   23 1
  50   22   25 am
  51   23   24 1
  52   23   54 1
  53   23   55 1
  54   24   56 1
  55   24   57 1
  56   25   26 2
  57   25   27 1
  58   27   29 1
  59   27   28 1
  60   27   58 1
  61   28   29 1
  62   28   59 1
  63   28   60 1
  64   29   61 1
  65   29   62 1
  66   30   31 2

#	End of record

