#	Name: ASD02030349
#	Creating user name:	WinNT
#	Creation time:	15. 06. 2019 20:15

#	Modifying user name:	WinNT
#	Modification time:	15. 06. 2019 20:15

#	Program:	/corina/corina34_cracker 3.40 0067  02.08.2006

@<TRIPOS>MOLECULE
ASD02030349
  42   45    0    0    0
SMALL
NO_CHARGES


@<TRIPOS>ATOM
   1 C1            -0.0281     1.3177     0.4696 C.2     
   2 N2            -0.0036    -0.0251     0.2246 N.am    
   3 N3             2.3447     0.0134     0.3768 N.2     
   4 C4             2.3619     1.3190     0.6165 C.2     
   5 C5             1.1687     2.0076     0.6696 C.2     
   6 C6            -1.0826    -0.8455     0.0074 C.2     
   7 C7            -0.8752    -2.1313    -0.2162 C.2     
   8 S8             0.8827    -2.3461    -0.1476 S.3     
   9 C9             1.2122    -0.6372     0.1869 C.2     
  10 C10           -1.9144    -3.1916    -0.4751 C.3     
  11 O11           -1.0929     1.9139     0.5085 O.2     
  12 C12           -2.4827    -0.2883     0.0243 C.3     
  13 C13           -2.8996     0.6101    -1.1419 C.3     
  14 C14           -3.4627    -0.8081    -1.0294 C.3     
  15 C15           -1.8631     0.8739    -2.2360 C.3     
  16 O16           -2.3878     1.8181    -3.1715 O.3     
  17 C17            3.6686     2.0387     0.8299 C.3     
  18 O18            4.2879     1.5574     2.0245 O.3     
  19 C19            5.4838     2.1073     2.3644 C.ar    
  20 C20            6.0459     3.0936     1.5674 C.ar    
  21 C21            6.1402     1.6867     3.5116 C.ar    
  22 C22            7.3552     2.2467     3.8562 C.ar    
  23 C23            7.9174     3.2277     3.0571 C.ar    
  24 C24            7.2610     3.6519     1.9143 C.ar    
  25 F25            9.1052     3.7752     3.3957 F       
  26 H26            1.1600     3.0700     0.8637 H       
  27 H27           -2.1029    -3.2617    -1.5464 H       
  28 H28           -1.5537    -4.1517    -0.1061 H       
  29 H29           -2.8383    -2.9282     0.0399 H       
  30 H30           -2.8824    -0.0510     1.0102 H       
  31 H31           -3.5739     1.4381    -0.9233 H       
  32 H32           -3.0947    -1.5531    -1.7348 H       
  33 H33           -4.5074    -0.9130    -0.7368 H       
  34 H34           -0.9543     1.2743    -1.7867 H       
  35 H35           -1.6333    -0.0587    -2.7513 H       
  36 H36           -1.7828     2.0332    -3.8946 H       
  37 H37            4.3269     1.8562    -0.0195 H       
  38 H38            3.4831     3.1088     0.9226 H       
  39 H39            5.5340     3.4247     0.6759 H       
  40 H40            5.7015     0.9219     4.1355 H       
  41 H41            7.8665     1.9194     4.7494 H       
  42 H42            7.6990     4.4197     1.2938 H       
@<TRIPOS>BOND
   1    1    2 am
   2    1    5 1
   3    1   11 2
   4    2    6 1
   5    2    9 1
   6    3    4 1
   7    3    9 2
   8    4    5 2
   9    4   17 1
  10    5   26 1
  11    6    7 2
  12    6   12 1
  13    7    8 1
  14    7   10 1
  15    8    9 1
  16   10   27 1
  17   10   28 1
  18   10   29 1
  19   12   13 1
  20   12   14 1
  21   12   30 1
  22   13   14 1
  23   13   15 1
  24   13   31 1
  25   14   32 1
  26   14   33 1
  27   15   16 1
  28   15   34 1
  29   15   35 1
  30   16   36 1
  31   17   18 1
  32   17   37 1
  33   17   38 1
  34   18   19 1
  35   19   21 ar
  36   19   20 ar
  37   20   24 ar
  38   20   39 1
  39   21   22 ar
  40   21   40 1
  41   22   23 ar
  42   22   41 1
  43   23   24 ar
  44   23   25 1
  45   24   42 1

#	End of record

