#	Name: ASD01884504
#	Creating user name:	WinNT
#	Creation time:	15. 06. 2019 19:48

#	Modifying user name:	WinNT
#	Modification time:	15. 06. 2019 19:48

#	Program:	/corina/corina34_cracker 3.40 0067  02.08.2006

@<TRIPOS>MOLECULE
ASD01884504
  58   60    0    0    0
SMALL
NO_CHARGES


@<TRIPOS>ATOM
   1 C1            -0.0168     1.3884     0.0097 C.2     
   2 C2             0.0021    -0.0041     0.0020 C.2     
   3 C3            -1.2095    -0.6965     0.0104 C.2     
   4 C4            -2.3831    -0.0157     0.0252 C.2     
   5 N5            -2.4093     1.3392     0.0327 N.am    
   6 C6            -1.2693     2.0558     0.0312 C.2     
   7 O7            -1.3129     3.2741     0.0380 O.2     
   8 C8            -3.6983     2.0352     0.0483 C.3     
   9 C9             1.2059     2.1337     0.0020 C.1     
  10 N10            2.1759     2.7249    -0.0041 N.1     
  11 N11            1.6901    -1.1066     1.3585 N.3     
  12 C12            2.8286    -2.0348     1.3670 C.3     
  13 C13            3.3074    -2.2375     2.8084 C.3     
  14 N14            2.1593    -2.6540     3.6279 N.am    
  15 C15            0.9308    -1.8477     3.5657 C.3     
  16 C16            0.5456    -1.6603     2.0944 C.3     
  17 C17           -4.1338     2.2698     1.4962 C.3     
  18 C18            1.3105    -0.7515    -0.0155 C.3     
  19 C19           -5.4800     2.9967     1.5124 C.3     
  20 C20           -5.9753     3.1206     2.9547 C.3     
  21 C21           -5.3132     4.3926     0.9087 C.3     
  22 S22            2.2472    -3.9957     4.5947 S.o2    
  23 C23            2.8359    -3.4666     6.1689 C.ar    
  24 O24            0.9107    -4.4355     4.7932 O.2     
  25 O25            3.2635    -4.8218     4.0431 O.2     
  26 C26            1.9400    -3.0740     7.1456 C.ar    
  27 C27            2.4018    -2.6589     8.3806 C.ar    
  28 C28            3.7596    -2.6367     8.6390 C.ar    
  29 C29            4.6556    -3.0301     7.6626 C.ar    
  30 C30            4.1935    -3.4494     6.4290 C.ar    
  31 H31           -1.2130    -1.7765     0.0046 H       
  32 H32           -3.3137    -0.5638     0.0308 H       
  33 H33           -3.5999     2.9937    -0.4613 H       
  34 H34           -4.4456     1.4275    -0.4619 H       
  35 H35            2.5201    -2.9927     0.9481 H       
  36 H36            3.6402    -1.6204     0.7690 H       
  37 H37            4.0752    -3.0108     2.8339 H       
  38 H38            3.7127    -1.3022     3.1945 H       
  39 H39            0.1274    -2.3632     4.0918 H       
  40 H40            1.1077    -0.8749     4.0245 H       
  41 H41           -0.2985    -0.9743     2.0239 H       
  42 H42            0.2689    -2.6234     1.6654 H       
  43 H43           -4.2323     1.3113     2.0058 H       
  44 H44           -3.3866     2.8775     2.0064 H       
  45 H45            1.2023    -1.6595    -0.6087 H       
  46 H46            2.0835    -0.1207    -0.4544 H       
  47 H47           -6.2051     2.4317     0.9266 H       
  48 H48           -5.2502     3.6856     3.5406 H       
  49 H49           -6.9344     3.6385     2.9663 H       
  50 H50           -6.0942     2.1261     3.3848 H       
  51 H51           -4.9604     4.3043    -0.1188 H       
  52 H52           -6.2723     4.9105     0.9203 H       
  53 H53           -4.5881     4.9575     1.4946 H       
  54 H54            0.8792    -3.0913     6.9437 H       
  55 H55            1.7019    -2.3515     9.1435 H       
  56 H56            4.1205    -2.3117     9.6036 H       
  57 H57            5.7164    -3.0125     7.8643 H       
  58 H58            4.8934    -3.7568     5.6662 H       
@<TRIPOS>BOND
   1    1    2 2
   2    1    9 1
   3    1    6 1
   4    2    3 1
   5    2   18 1
   6    3    4 2
   7    3   31 1
   8    4    5 1
   9    4   32 1
  10    5    6 am
  11    5    8 1
  12    6    7 2
  13    8   17 1
  14    8   33 1
  15    8   34 1
  16    9   10 3
  17   11   12 1
  18   11   16 1
  19   11   18 1
  20   12   13 1
  21   12   35 1
  22   12   36 1
  23   13   14 1
  24   13   37 1
  25   13   38 1
  26   14   15 1
  27   14   22 am
  28   15   16 1
  29   15   39 1
  30   15   40 1
  31   16   41 1
  32   16   42 1
  33   17   19 1
  34   17   43 1
  35   17   44 1
  36   18   45 1
  37   18   46 1
  38   19   20 1
  39   19   21 1
  40   19   47 1
  41   20   48 1
  42   20   49 1
  43   20   50 1
  44   21   51 1
  45   21   52 1
  46   21   53 1
  47   22   23 1
  48   22   24 2
  49   22   25 2
  50   23   26 ar
  51   23   30 ar
  52   26   27 ar
  53   26   54 1
  54   27   28 ar
  55   27   55 1
  56   28   29 ar
  57   28   56 1
  58   29   30 ar
  59   29   57 1
  60   30   58 1

#	End of record

