#	Name: ASD01911342
#	Creating user name:	WinNT
#	Creation time:	15. 06. 2019 19:57

#	Modifying user name:	WinNT
#	Modification time:	15. 06. 2019 19:57

#	Program:	/corina/corina34_cracker 3.40 0067  02.08.2006

@<TRIPOS>MOLECULE
ASD01911342
  37   39    0    0    0
SMALL
NO_CHARGES


@<TRIPOS>ATOM
   1 C1            -0.0173     1.4278     0.0099 C.ar    
   2 C2             0.0021    -0.0041     0.0020 C.1     
   3 C3             0.0180    -1.1779    -0.0044 C.1     
   4 C4             0.0374    -2.6098    -0.0123 C.ar    
   5 N5            -1.1129    -3.2809    -0.0049 N.ar    
   6 C6            -1.1402    -4.5946    -0.0124 C.ar    
   7 C7             0.0524    -5.3255    -0.0293 C.ar    
   8 C8             1.2779    -4.6525    -0.0364 C.ar    
   9 C9             1.2647    -3.2818    -0.0335 C.ar    
  10 C10           -2.4509    -5.3382    -0.0024 C.3     
  11 C11           -2.3257    -6.6233    -0.8171 C.3     
  12 N12           -1.1656    -7.4027    -0.3933 N.am    
  13 C13           -0.0122    -6.7996    -0.0409 C.2     
  14 O14            0.9615    -7.4614     0.2627 O.2     
  15 C15           -1.2566    -8.8642    -0.3499 C.3     
  16 C16            1.1815     2.1465     0.0023 C.ar    
  17 C17            1.1548     3.5253     0.0095 C.ar    
  18 C18           -0.0549     4.1973     0.0246 C.ar    
  19 C19           -1.2459     3.4926     0.0327 C.ar    
  20 C20           -1.2353     2.1136     0.0194 C.ar    
  21 C21           -0.0753     5.7042     0.0329 C.3     
  22 H22            2.2100    -5.1979    -0.0486 H       
  23 H23            2.1911    -2.7267    -0.0391 H       
  24 H24           -2.7190    -5.5855     1.0248 H       
  25 H25           -3.2276    -4.7087    -0.4364 H       
  26 H26           -3.2270    -7.2214    -0.6826 H       
  27 H27           -2.2202    -6.3694    -1.8718 H       
  28 H28           -0.9562    -9.2757    -1.3135 H       
  29 H29           -0.5976    -9.2463     0.4297 H       
  30 H30           -2.2838    -9.1580    -0.1337 H       
  31 H31            2.1263     1.6234    -0.0088 H       
  32 H32            2.0802     4.0820     0.0036 H       
  33 H33           -2.1861     4.0239     0.0452 H       
  34 H34           -2.1655     1.5650     0.0253 H       
  35 H35           -0.0901     6.0730    -0.9927 H       
  36 H36           -0.9652     6.0526     0.5571 H       
  37 H37            0.8145     6.0768     0.5403 H       
@<TRIPOS>BOND
   1    1    2 1
   2    1   16 ar
   3    1   20 ar
   4    2    3 3
   5    3    4 1
   6    4    5 ar
   7    4    9 ar
   8    5    6 ar
   9    6    7 ar
  10    6   10 1
  11    7    8 ar
  12    7   13 1
  13    8    9 ar
  14    8   22 1
  15    9   23 1
  16   10   11 1
  17   10   24 1
  18   10   25 1
  19   11   12 1
  20   11   26 1
  21   11   27 1
  22   12   13 am
  23   12   15 1
  24   13   14 2
  25   15   28 1
  26   15   29 1
  27   15   30 1
  28   16   17 ar
  29   16   31 1
  30   17   18 ar
  31   17   32 1
  32   18   19 ar
  33   18   21 1
  34   19   20 ar
  35   19   33 1
  36   20   34 1
  37   21   35 1
  38   21   36 1
  39   21   37 1

#	End of record

