#	Name: ASD01883690
#	Creating user name:	WinNT
#	Creation time:	15. 06. 2019 19:46

#	Modifying user name:	WinNT
#	Modification time:	15. 06. 2019 19:46

#	Program:	/corina/corina34_cracker 3.40 0067  02.08.2006

@<TRIPOS>MOLECULE
ASD01883690
  46   49    0    0    0
SMALL
NO_CHARGES


@<TRIPOS>ATOM
   1 C1             1.6682     2.7932     0.1001 C.2     
   2 C2             1.2960     1.4997     0.4936 C.2     
   3 C3             0.0085     1.2922     1.0311 C.2     
   4 C4            -0.8580     2.3132     1.1688 C.2     
   5 N5            -0.5375     3.5869     0.7986 N.pl3   
   6 C6             0.6962     3.8747     0.2731 C.2     
   7 C7            -1.2359     4.7656     0.8397 C.2     
   8 C8            -0.4278     5.7251     0.3415 C.2     
   9 N9             0.7395     5.1671     0.0040 N.2     
  10 C10           -2.6427     4.9547     1.3458 C.3     
  11 C11           -3.6208     4.8858     0.1713 C.3     
  12 C12            2.2387     0.3703     0.3468 C.ar    
  13 C13            2.7248    -0.2875     1.4788 C.ar    
  14 C14            3.6029    -1.3398     1.3379 C.ar    
  15 C15            4.0051    -1.7466     0.0716 C.ar    
  16 C16            3.5237    -1.0946    -1.0571 C.ar    
  17 C17            2.6409    -0.0451    -0.9245 C.ar    
  18 O18            4.8713    -2.7837    -0.0632 O.3     
  19 C19            5.2332    -3.4609     1.0554 C.ar    
  20 C20            4.4768    -4.5460     1.4840 C.ar    
  21 C21            4.8406    -5.2359     2.6185 C.ar    
  22 C22            5.9722    -4.8440     3.3399 C.ar    
  23 C23            6.7299    -3.7525     2.9055 C.ar    
  24 C24            6.3626    -3.0715     1.7668 C.ar    
  25 F25           -3.5134     3.6381    -0.4524 F       
  26 F26           -4.9268     5.0614     0.6411 F       
  27 F27           -3.3166     5.8948    -0.7488 F       
  28 C28            6.3652    -5.5799     4.5559 C.2     
  29 O29            7.4562    -5.2006     5.2498 O.3     
  30 O30            5.7052    -6.5281     4.9322 O.2     
  31 C31            2.9651     3.0504    -0.4501 C.1     
  32 N32            3.9938     3.2544    -0.8865 N.1     
  33 H33           -0.2866     0.2992     1.3364 H       
  34 H34           -1.8357     2.1184     1.5842 H       
  35 H35           -0.6805     6.7698     0.2364 H       
  36 H36           -2.8797     4.1686     2.0626 H       
  37 H37           -2.7264     5.9268     1.8317 H       
  38 H38            2.4132     0.0286     2.4633 H       
  39 H39            3.9792    -1.8490     2.2128 H       
  40 H40            3.8386    -1.4136    -2.0396 H       
  41 H41            2.2671     0.4612    -1.8022 H       
  42 H42            3.6026    -4.8479     0.9264 H       
  43 H43            4.2523    -6.0784     2.9510 H       
  44 H44            7.6048    -3.4466     3.4600 H       
  45 H45            6.9476    -2.2283     1.4303 H       
  46 H46            7.6740    -5.7135     6.0402 H       
@<TRIPOS>BOND
   1    1    2 2
   2    1   31 1
   3    1    6 1
   4    2    3 1
   5    2   12 1
   6    3    4 2
   7    3   33 1
   8    4    5 1
   9    4   34 1
  10    5    6 1
  11    5    7 1
  12    6    9 2
  13    7    8 2
  14    7   10 1
  15    8    9 1
  16    8   35 1
  17   10   11 1
  18   10   36 1
  19   10   37 1
  20   11   25 1
  21   11   26 1
  22   11   27 1
  23   12   13 ar
  24   12   17 ar
  25   13   14 ar
  26   13   38 1
  27   14   15 ar
  28   14   39 1
  29   15   16 ar
  30   15   18 1
  31   16   17 ar
  32   16   40 1
  33   17   41 1
  34   18   19 1
  35   19   20 ar
  36   19   24 ar
  37   20   21 ar
  38   20   42 1
  39   21   22 ar
  40   21   43 1
  41   22   23 ar
  42   22   28 1
  43   23   24 ar
  44   23   44 1
  45   24   45 1
  46   28   29 1
  47   28   30 2
  48   29   46 1
  49   31   32 3

#	End of record

