#	Name: ASD01940397
#	Creating user name:	WinNT
#	Creation time:	15. 06. 2019 20:12

#	Modifying user name:	WinNT
#	Modification time:	15. 06. 2019 20:12

#	Program:	/corina/corina34_cracker 3.40 0067  02.08.2006

@<TRIPOS>MOLECULE
ASD01940397
  41   43    0    0    0
SMALL
NO_CHARGES


@<TRIPOS>ATOM
   1 N1             2.2715     1.1448    -3.1417 N.pl3   
   2 N2             3.4534     0.6155    -3.6735 N.2     
   3 C3             4.4318     0.7952    -2.8340 C.2     
   4 C4             3.9290     1.4624    -1.6920 C.ar    
   5 C5             4.5164     1.9060    -0.4936 C.ar    
   6 C6             3.7211     2.5504     0.4604 C.ar    
   7 C7             2.3521     2.7485     0.2168 C.ar    
   8 C8             1.7840     2.3191    -0.9420 C.ar    
   9 C9             2.5558     1.6731    -1.9117 C.ar    
  10 C10            4.3193     3.0204     1.7200 C.2     
  11 O11            5.3528     3.6617     1.7004 O.2     
  12 N12            3.7222     2.7405     2.8954 N.am    
  13 C13            4.3598     3.1362     4.1535 C.3     
  14 O14            4.2503     4.5514     4.3186 O.3     
  15 C15            2.9844     4.9815     4.8230 C.3     
  16 N16            5.8663     1.7068    -0.2602 N.pl3   
  17 C17            6.3368     0.4345     0.0814 C.ar    
  18 C18            7.6987     0.2224     0.2713 C.ar    
  19 C19            8.1594    -1.0363     0.6093 C.ar    
  20 C20            7.2674    -2.0836     0.7585 C.ar    
  21 C21            5.9134    -1.8750     0.5697 C.ar    
  22 C22            5.4454    -0.6181     0.2374 C.ar    
  23 I23            7.9697    -3.9897     1.2707 I       
  24 F24            8.5695     1.2450     0.1252 F       
  25 C25            2.4354     2.0405     2.9148 C.3     
  26 H26            1.4024     1.1414    -3.5724 H       
  27 H27            5.4558     0.4864    -2.9838 H       
  28 H28            1.7441     3.2467     0.9575 H       
  29 H29            0.7297     2.4785    -1.1140 H       
  30 H30            3.8654     2.6341     4.9851 H       
  31 H31            5.4122     2.8532     4.1322 H       
  32 H32            2.1924     4.6382     4.1575 H       
  33 H33            2.8291     4.5645     5.8181 H       
  34 H34            2.9661     6.0700     4.8783 H       
  35 H35            6.4859     2.4495    -0.3336 H       
  36 H36            9.2163    -1.2026     0.7567 H       
  37 H37            5.2201    -2.6949     0.6867 H       
  38 H38            4.3872    -0.4558     0.0947 H       
  39 H39            2.4066     1.3106     2.1058 H       
  40 H40            2.3142     1.5293     3.8698 H       
  41 H41            1.6279     2.7608     2.7831 H       
@<TRIPOS>BOND
   1    1    2 1
   2    1    9 1
   3    1   26 1
   4    2    3 2
   5    3    4 1
   6    3   27 1
   7    4    5 ar
   8    4    9 ar
   9    5    6 ar
  10    5   16 1
  11    6    7 ar
  12    6   10 1
  13    7    8 ar
  14    7   28 1
  15    8    9 ar
  16    8   29 1
  17   10   11 2
  18   10   12 am
  19   12   13 1
  20   12   25 1
  21   13   14 1
  22   13   30 1
  23   13   31 1
  24   14   15 1
  25   15   32 1
  26   15   33 1
  27   15   34 1
  28   16   17 1
  29   16   35 1
  30   17   18 ar
  31   17   22 ar
  32   18   19 ar
  33   18   24 1
  34   19   20 ar
  35   19   36 1
  36   20   21 ar
  37   20   23 1
  38   21   22 ar
  39   21   37 1
  40   22   38 1
  41   25   39 1
  42   25   40 1
  43   25   41 1

#	End of record

