#	Name: ASD01917097
#	Creating user name:	WinNT
#	Creation time:	15. 06. 2019 20:08

#	Modifying user name:	WinNT
#	Modification time:	15. 06. 2019 20:08

#	Program:	/corina/corina34_cracker 3.40 0067  02.08.2006

@<TRIPOS>MOLECULE
ASD01917097
  37   39    0    0    0
SMALL
NO_CHARGES


@<TRIPOS>ATOM
   1 C1            -0.0425     1.4708     0.1517 C.ar    
   2 C2            -0.0085    -0.0061     0.0634 C.2     
   3 N3             1.0564    -0.7655     0.2106 N.2     
   4 C4             0.7170    -2.0510     0.0660 C.2     
   5 N5            -0.5740    -2.1275    -0.1762 N.2     
   6 N6            -1.0680    -0.8130    -0.1769 N.pl3   
   7 C7            -2.4544    -0.3969    -0.4025 C.3     
   8 C8            -3.1966    -0.3904     0.9090 C.2     
   9 O9            -4.4916    -0.0390     0.9456 O.3     
  10 O10           -2.6261    -0.7014     1.9276 O.2     
  11 C11            1.6461    -3.2042     0.1622 C.ar    
  12 C12           -1.2475     2.1304     0.3941 C.ar    
  13 C13            1.1689    -4.5019    -0.0089 C.ar    
  14 C14            2.0364    -5.5714     0.0809 C.ar    
  15 C15            3.3799    -5.3561     0.3413 C.ar    
  16 C16            3.8586    -4.0670     0.5122 C.ar    
  17 C17            2.9994    -2.9918     0.4183 C.ar    
  18 C18            5.3211    -3.8389     0.7953 C.3     
  19 C19           -1.2726     3.5076     0.4752 C.ar    
  20 C20           -0.1060     4.2341     0.3166 C.ar    
  21 C21            1.0922     3.5858     0.0759 C.ar    
  22 C22            1.1314     2.2088    -0.0016 C.ar    
  23 F23            4.2256    -6.4059     0.4294 F       
  24 H24           -2.4678     0.6046    -0.8325 H       
  25 H25           -2.9357    -1.0935    -1.0889 H       
  26 H26           -4.9253    -0.0500     1.8098 H       
  27 H27           -2.1589     1.5644     0.5178 H       
  28 H28            0.1216    -4.6707    -0.2113 H       
  29 H29            1.6674    -6.5777    -0.0517 H       
  30 H30            3.3733    -1.9874     0.5517 H       
  31 H31            5.8589    -3.7189    -0.1452 H       
  32 H32            5.4384    -2.9385     1.3983 H       
  33 H33            5.7240    -4.6943     1.3376 H       
  34 H34           -2.2050     4.0195     0.6626 H       
  35 H35           -0.1309     5.3120     0.3806 H       
  36 H36            1.9995     4.1586    -0.0473 H       
  37 H37            2.0674     1.7037    -0.1892 H       
@<TRIPOS>BOND
   1    1    2 1
   2    1   12 ar
   3    1   22 ar
   4    2    3 2
   5    2    6 1
   6    3    4 1
   7    4    5 2
   8    4   11 1
   9    5    6 1
  10    6    7 1
  11    7    8 1
  12    7   24 1
  13    7   25 1
  14    8    9 1
  15    8   10 2
  16    9   26 1
  17   11   13 ar
  18   11   17 ar
  19   12   19 ar
  20   12   27 1
  21   13   14 ar
  22   13   28 1
  23   14   15 ar
  24   14   29 1
  25   15   16 ar
  26   15   23 1
  27   16   17 ar
  28   16   18 1
  29   17   30 1
  30   18   31 1
  31   18   32 1
  32   18   33 1
  33   19   20 ar
  34   19   34 1
  35   20   21 ar
  36   20   35 1
  37   21   22 ar
  38   21   36 1
  39   22   37 1

#	End of record

