#	Name: ASD07300143
#	Creating user name:	WinNT
#	Creation time:	15. 06. 2019 21:09

#	Modifying user name:	WinNT
#	Modification time:	15. 06. 2019 21:09

#	Program:	/corina/corina34_cracker 3.40 0067  02.08.2006

@<TRIPOS>MOLECULE
ASD07300143
  42   46    0    0    0
SMALL
NO_CHARGES


@<TRIPOS>ATOM
   1 C1            -0.9087     0.9708    -0.1490 C.ar    
   2 C2            -1.1037    -0.4129    -0.1847 C.ar    
   3 C3            -0.0014    -1.2540    -0.2316 C.ar    
   4 C4             1.2614    -0.6806    -0.2411 C.ar    
   5 C5             1.3804     0.6964    -0.2040 C.ar    
   6 N6             0.3154     1.4728    -0.1593 N.ar    
   7 C7            -3.0925     0.5673    -0.1074 C.2     
   8 N8            -2.1720     1.5493    -0.1011 N.am    
   9 N9            -2.4782    -0.6299    -0.1626 N.am    
  10 O10           -4.2970     0.7358    -0.0730 O.2     
  11 O11           -3.2363     6.9737     0.0850 O.3     
  12 C12           -4.0201     4.7281     0.0375 C.ar    
  13 C13           -3.7549     3.3739    -0.0090 C.ar    
  14 C14           -2.4419     2.9250    -0.0543 C.ar    
  15 C15           -1.3962     3.8382    -0.0526 C.ar    
  16 C16           -1.6624     5.1922    -0.0060 C.ar    
  17 C17           -2.9747     5.6403     0.0392 C.ar    
  18 C18           -3.6096     7.5074     1.2712 C.2     
  19 N19           -3.9996     8.8015     1.4544 N.pl3   
  20 C20           -3.1421    -1.9356    -0.1869 C.3     
  21 C21           -3.3434    -2.4321     1.2462 C.3     
  22 N22           -3.6527     6.8578     2.3967 N.2     
  23 C23           -4.0757     7.6989     3.4078 C.2     
  24 C24           -4.3044     8.9550     2.8229 C.2     
  25 C25           -4.3246     7.6602     4.7424 C.2     
  26 S26           -4.8586     9.2353     5.3029 S.3     
  27 C27           -4.7274     9.9010     3.6845 C.2     
  28 H28           -0.1234    -2.3268    -0.2595 H       
  29 H29            2.1430    -1.3034    -0.2768 H       
  30 H30            2.3632     1.1441    -0.2110 H       
  31 H31           -5.0416     5.0775     0.0682 H       
  32 H32           -4.5687     2.6639    -0.0099 H       
  33 H33           -0.3746     3.4895    -0.0874 H       
  34 H34           -0.8489     5.9027    -0.0044 H       
  35 H35           -4.0567     9.4878     0.7713 H       
  36 H36           -4.1105    -1.8418    -0.6783 H       
  37 H37           -2.5242    -2.6473    -0.7345 H       
  38 H38           -3.8373    -3.4036     1.2282 H       
  39 H39           -2.3750    -2.5260     1.7377 H       
  40 H40           -3.9613    -1.7205     1.7939 H       
  41 H41           -4.2110     6.7870     5.3677 H       
  42 H42           -4.9522    10.9230     3.4174 H       
@<TRIPOS>BOND
   1    1    2 ar
   2    1    6 ar
   3    1    8 1
   4    2    3 ar
   5    2    9 1
   6    3    4 ar
   7    3   28 1
   8    4    5 ar
   9    4   29 1
  10    5    6 ar
  11    5   30 1
  12    7    8 am
  13    7    9 am
  14    7   10 2
  15    8   14 1
  16    9   20 1
  17   11   17 1
  18   11   18 1
  19   12   13 ar
  20   12   17 ar
  21   12   31 1
  22   13   14 ar
  23   13   32 1
  24   14   15 ar
  25   15   16 ar
  26   15   33 1
  27   16   17 ar
  28   16   34 1
  29   18   19 1
  30   18   22 2
  31   19   24 1
  32   19   35 1
  33   20   21 1
  34   20   36 1
  35   20   37 1
  36   21   38 1
  37   21   39 1
  38   21   40 1
  39   22   23 1
  40   23   24 1
  41   23   25 2
  42   24   27 2
  43   25   26 1
  44   25   41 1
  45   26   27 1
  46   27   42 1

#	End of record

