#	Name: ASD01884658
#	Creating user name:	WinNT
#	Creation time:	15. 06. 2019 19:48

#	Modifying user name:	WinNT
#	Modification time:	15. 06. 2019 19:48

#	Program:	/corina/corina34_cracker 3.40 0067  02.08.2006

@<TRIPOS>MOLECULE
ASD01884658
  42   44    0    0    0
SMALL
NO_CHARGES


@<TRIPOS>ATOM
   1 C1             0.7534     1.4891     0.4397 C.2     
   2 C2             0.5666     0.1433     0.3496 C.2     
   3 C3             1.6876    -0.6964     0.1729 C.2     
   4 C4             2.9360    -0.1503     0.0953 C.2     
   5 N5             3.1082     1.1915     0.1865 N.am    
   6 C6             2.0555     2.0131     0.3551 C.2     
   7 O7             2.2319     3.2181     0.4348 O.2     
   8 C8             1.5095    -2.1662     0.0726 C.ar    
   9 C9             4.4580     1.7544     0.1004 C.3     
  10 C10            4.7836     2.0609    -1.3388 C.ar    
  11 C11            4.3009     3.2177    -1.9265 C.ar    
  12 C12            4.6009     3.4987    -3.2487 C.ar    
  13 C13            5.3824     2.6235    -3.9806 C.ar    
  14 C14            5.8639     1.4675    -3.3916 C.ar    
  15 C15            5.5688     1.1897    -2.0703 C.ar    
  16 F16            3.5373     4.0718    -1.2105 F       
  17 Cl17           5.7586     2.9745    -5.6386 Cl      
  18 C18            1.0284    -2.8869     1.1621 C.ar    
  19 C19            1.8180    -2.8281    -1.1149 C.ar    
  20 C20            1.6509    -4.1952    -1.2071 C.ar    
  21 C21            1.1778    -4.9123    -0.1242 C.ar    
  22 C22            0.8637    -4.2603     1.0617 C.ar    
  23 N23            0.3855    -4.9897     2.1560 N.am    
  24 C24           -0.5415    -4.4503     2.9722 C.2     
  25 C25           -1.1335    -5.2728     4.0876 C.3     
  26 O26           -0.8993    -3.3030     2.8089 O.2     
  27 H27           -0.0917     2.1487     0.5705 H       
  28 H28           -0.4265    -0.2764     0.4129 H       
  29 H29            3.7940    -0.7923    -0.0395 H       
  30 H30            4.5072     2.6716     0.6873 H       
  31 H31            5.1775     1.0345     0.4904 H       
  32 H32            4.2246     4.4008    -3.7082 H       
  33 H33            6.4741     0.7842    -3.9635 H       
  34 H34            5.9451     0.2873    -1.6115 H       
  35 H35            0.7845    -2.3781     2.0830 H       
  36 H36            2.1875    -2.2710    -1.9632 H       
  37 H37            1.8901    -4.7060    -2.1281 H       
  38 H38            1.0481    -5.9817    -0.2016 H       
  39 H39            0.7213    -5.8835     2.3272 H       
  40 H40           -0.6931    -6.2698     4.0771 H       
  41 H41           -0.9238    -4.7930     5.0436 H       
  42 H42           -2.2119    -5.3505     3.9489 H       
@<TRIPOS>BOND
   1    1    2 2
   2    1    6 1
   3    1   27 1
   4    2    3 1
   5    2   28 1
   6    3    4 2
   7    3    8 1
   8    4    5 1
   9    4   29 1
  10    5    6 am
  11    5    9 1
  12    6    7 2
  13    8   18 ar
  14    8   19 ar
  15    9   10 1
  16    9   30 1
  17    9   31 1
  18   10   11 ar
  19   10   15 ar
  20   11   12 ar
  21   11   16 1
  22   12   13 ar
  23   12   32 1
  24   13   14 ar
  25   13   17 1
  26   14   15 ar
  27   14   33 1
  28   15   34 1
  29   18   22 ar
  30   18   35 1
  31   19   20 ar
  32   19   36 1
  33   20   21 ar
  34   20   37 1
  35   21   22 ar
  36   21   38 1
  37   22   23 1
  38   23   24 am
  39   23   39 1
  40   24   25 1
  41   24   26 2
  42   25   40 1
  43   25   41 1
  44   25   42 1

#	End of record

