#	Name: ASD01120026
#	Creating user name:	WinNT
#	Creation time:	15. 06. 2019 18:58

#	Modifying user name:	WinNT
#	Modification time:	15. 06. 2019 18:58

#	Program:	/corina/corina34_cracker 3.40 0067  02.08.2006

@<TRIPOS>MOLECULE
ASD01120026
  48   51    0    0    0
SMALL
NO_CHARGES


@<TRIPOS>ATOM
   1 C1            -0.0907     1.3502     0.6498 C.ar    
   2 C2            -0.0524    -0.0389     0.4658 C.ar    
   3 C3            -1.1845    -0.7311     0.0963 C.ar    
   4 C4            -2.3851    -0.0372    -0.0969 C.ar    
   5 C5            -2.4161     1.3670     0.0911 C.ar    
   6 C6            -1.2527     2.0461     0.4722 C.ar    
   7 N7            -3.5156    -0.6645    -0.4575 N.ar    
   8 C8            -4.6255     0.0126    -0.6315 C.ar    
   9 N9            -4.7018     1.3238    -0.4678 N.ar    
  10 C10           -3.6440     2.0408    -0.1119 C.ar    
  11 N11           -3.7382     3.4079     0.0556 N.pl3   
  12 C12           -4.9822     4.0392    -0.0356 C.ar    
  13 O13            1.0400     2.0115     1.0147 O.3     
  14 O14            1.1140    -0.7097     0.6534 O.3     
  15 C15           -6.1279     3.3763     0.3767 C.ar    
  16 C16           -7.3664     4.0104     0.2836 C.ar    
  17 C17           -7.4445     5.3081    -0.2239 C.ar    
  18 C18           -6.2982     5.9598    -0.6322 C.ar    
  19 C19           -5.0699     5.3340    -0.5343 C.ar    
  20 C20           -8.5932     3.3098     0.7208 C.2     
  21 C21            0.9371     3.4264     1.1868 C.3     
  22 C22            2.2996     3.9910     1.5941 C.3     
  23 C23            1.0889    -2.1240     0.4506 C.3     
  24 C24            2.4828    -2.7006     0.7061 C.3     
  25 N25           -9.7987     3.8005     0.6806 N.2     
  26 C26          -10.7712     3.0311     1.1124 C.2     
  27 C27          -10.4071     1.8203     1.5479 C.2     
  28 S28           -8.6593     1.6744     1.3725 S.3     
  29 H29           -1.1462    -1.8013    -0.0438 H       
  30 H30           -1.2718     3.1162     0.6169 H       
  31 H31           -5.5169    -0.5237    -0.9216 H       
  32 H32           -2.9413     3.9305     0.2366 H       
  33 H33           -6.0615     2.3719     0.7682 H       
  34 H34           -8.4019     5.8024    -0.2974 H       
  35 H35           -6.3608     6.9639    -1.0249 H       
  36 H36           -4.1764     5.8489    -0.8550 H       
  37 H37            0.6195     3.8842     0.2500 H       
  38 H38            0.2057     3.6456     1.9647 H       
  39 H39            2.6172     3.5332     2.5309 H       
  40 H40            3.0310     3.7719     0.8163 H       
  41 H41            2.2211     5.0703     1.7254 H       
  42 H42            0.3763    -2.5773     1.1396 H       
  43 H43            0.7894    -2.3387    -0.5752 H       
  44 H44            3.1955    -2.2473     0.0171 H       
  45 H45            2.7824    -2.4860     1.7320 H       
  46 H46            2.4637    -3.7794     0.5514 H       
  47 H47          -11.8011     3.3561     1.1160 H       
  48 H48          -11.0701     1.0612     1.9358 H       
@<TRIPOS>BOND
   1    1    2 ar
   2    1   13 1
   3    1    6 ar
   4    2    3 ar
   5    2   14 1
   6    3    4 ar
   7    3   29 1
   8    4    5 ar
   9    4    7 ar
  10    5    6 ar
  11    5   10 ar
  12    6   30 1
  13    7    8 ar
  14    8    9 ar
  15    8   31 1
  16    9   10 ar
  17   10   11 1
  18   11   12 1
  19   11   32 1
  20   12   15 ar
  21   12   19 ar
  22   13   21 1
  23   14   23 1
  24   15   16 ar
  25   15   33 1
  26   16   17 ar
  27   16   20 1
  28   17   18 ar
  29   17   34 1
  30   18   19 ar
  31   18   35 1
  32   19   36 1
  33   20   25 2
  34   20   28 1
  35   21   22 1
  36   21   37 1
  37   21   38 1
  38   22   39 1
  39   22   40 1
  40   22   41 1
  41   23   24 1
  42   23   42 1
  43   23   43 1
  44   24   44 1
  45   24   45 1
  46   24   46 1
  47   25   26 1
  48   26   27 2
  49   26   47 1
  50   27   28 1
  51   27   48 1

#	End of record

