#	Name: ASD01180210
#	Creating user name:	WinNT
#	Creation time:	15. 06. 2019 19:07

#	Modifying user name:	WinNT
#	Modification time:	15. 06. 2019 19:07

#	Program:	/corina/corina34_cracker 3.40 0067  02.08.2006

@<TRIPOS>MOLECULE
ASD01180210
  63   65    0    0    0
SMALL
NO_CHARGES


@<TRIPOS>ATOM
   1 C1             0.6799     1.2135    -0.6551 C.ar    
   2 C2             0.5896    -0.1599    -0.5542 C.ar    
   3 C3             1.7482    -0.9344    -0.5642 C.ar    
   4 C4             2.9923    -0.3163    -0.6763 C.ar    
   5 C5             3.0706     1.0579    -0.7766 C.ar    
   6 C6             1.9173     1.8216    -0.7660 C.ar    
   7 C7             1.6576    -2.4110    -0.4556 C.ar    
   8 C8             2.0626    -3.2154    -1.5197 C.ar    
   9 C9             1.9781    -4.5874    -1.4165 C.ar    
  10 C10            1.4893    -5.1691    -0.2523 C.ar    
  11 C11            1.0848    -4.3688     0.8100 C.ar    
  12 C12            1.1727    -2.9965     0.7129 C.ar    
  13 N13            1.4040    -6.5584    -0.1501 N.pl3   
  14 C14            0.9609    -7.1748     1.1028 C.3     
  15 C15            0.3952    -8.5422     0.8173 C.ar    
  16 N16            1.1882    -9.4878     0.3501 N.ar    
  17 C17            0.7449   -10.6988     0.0845 C.ar    
  18 C18           -0.5966   -11.0249     0.2919 C.ar    
  19 C19           -1.4626   -10.0421     0.7871 C.ar    
  20 C20           -0.9453    -8.7868     1.0548 C.ar    
  21 C21           -1.0942   -12.3834    -0.0064 C.2     
  22 O22           -0.2513   -13.3199    -0.4828 O.3     
  23 O23           -2.2635   -12.6560     0.1779 O.2     
  24 C24           -0.8094   -14.6328    -0.7535 C.3     
  25 C25            2.0094     3.3218    -0.8764 C.3     
  26 F26            1.9648     3.6938    -2.2243 F       
  27 F27            0.9360     3.9062    -0.1956 F       
  28 F28            3.2128     3.7579    -0.3118 F       
  29 C29            0.7345    -2.1295     1.8650 C.3     
  30 C30            2.5921    -2.5854    -2.7822 C.3     
  31 C31            2.1504    -7.3039     2.0563 C.3     
  32 C32            1.6716    -7.8676     3.3957 C.3     
  33 C33            2.8776    -8.1239     4.3016 C.3     
  34 C34            0.7345    -6.8614     4.0667 C.3     
  35 H35           -0.2176     1.8144    -0.6519 H       
  36 H36           -0.3771    -0.6336    -0.4672 H       
  37 H37            3.8933    -0.9116    -0.6843 H       
  38 H38            4.0342     1.5379    -0.8632 H       
  39 H39            2.2914    -5.2109    -2.2408 H       
  40 H40            0.7050    -4.8226     1.7135 H       
  41 H41            1.6382    -7.1158    -0.9086 H       
  42 H42            0.1929    -6.5526     1.5622 H       
  43 H43            1.4248   -11.4460    -0.2972 H       
  44 H44           -2.5064   -10.2594     0.9595 H       
  45 H45           -1.5832    -8.0041     1.4379 H       
  46 H46           -0.0261   -15.2897    -1.1315 H       
  47 H47           -1.2206   -15.0494     0.1660 H       
  48 H48           -1.6005   -14.5448    -1.4981 H       
  49 H49            1.5803    -1.9540     2.5299 H       
  50 H50            0.3683    -1.1763     1.4837 H       
  51 H51           -0.0618    -2.6310     2.4149 H       
  52 H52            3.6722    -2.4629    -2.7018 H       
  53 H53            2.3615    -3.2268    -3.6327 H       
  54 H54            2.1256    -1.6107    -2.9252 H       
  55 H55            2.8917    -7.9758     1.6236 H       
  56 H56            2.5977    -6.3226     2.2142 H       
  57 H57            1.1389    -8.8034     3.2265 H       
  58 H58            3.4104    -7.1881     4.4708 H       
  59 H59            2.5365    -8.5255     5.2558 H       
  60 H60            3.5453    -8.8408     3.8236 H       
  61 H61           -0.1738    -6.7588     3.4729 H       
  62 H62            0.4777    -7.2141     5.0656 H       
  63 H63            1.2320    -5.8943     4.1397 H       
@<TRIPOS>BOND
   1    1    2 ar
   2    1    6 ar
   3    1   35 1
   4    2    3 ar
   5    2   36 1
   6    3    4 ar
   7    3    7 1
   8    4    5 ar
   9    4   37 1
  10    5    6 ar
  11    5   38 1
  12    6   25 1
  13    7    8 ar
  14    7   12 ar
  15    8    9 ar
  16    8   30 1
  17    9   10 ar
  18    9   39 1
  19   10   11 ar
  20   10   13 1
  21   11   12 ar
  22   11   40 1
  23   12   29 1
  24   13   14 1
  25   13   41 1
  26   14   15 1
  27   14   31 1
  28   14   42 1
  29   15   16 ar
  30   15   20 ar
  31   16   17 ar
  32   17   18 ar
  33   17   43 1
  34   18   19 ar
  35   18   21 1
  36   19   20 ar
  37   19   44 1
  38   20   45 1
  39   21   22 1
  40   21   23 2
  41   22   24 1
  42   24   46 1
  43   24   47 1
  44   24   48 1
  45   25   26 1
  46   25   27 1
  47   25   28 1
  48   29   49 1
  49   29   50 1
  50   29   51 1
  51   30   52 1
  52   30   53 1
  53   30   54 1
  54   31   32 1
  55   31   55 1
  56   31   56 1
  57   32   33 1
  58   32   34 1
  59   32   57 1
  60   33   58 1
  61   33   59 1
  62   33   60 1
  63   34   61 1
  64   34   62 1
  65   34   63 1

#	End of record

