#	Name: ASD02030024
#	Creating user name:	WinNT
#	Creation time:	15. 06. 2019 20:14

#	Modifying user name:	WinNT
#	Modification time:	15. 06. 2019 20:14

#	Program:	/corina/corina34_cracker 3.40 0067  02.08.2006

@<TRIPOS>MOLECULE
ASD02030024
  62   64    0    0    0
SMALL
NO_CHARGES


@<TRIPOS>ATOM
   1 C1            -0.5635    -4.2265    -0.2019 C.ar    
   2 C2            -1.4600    -5.2500     0.0539 C.ar    
   3 C3            -2.8205    -5.0002     0.0248 C.ar    
   4 C4            -3.2838    -3.7296    -0.2593 C.ar    
   5 C5            -2.3885    -2.7075    -0.5152 C.ar    
   6 C6            -1.0290    -2.9539    -0.4805 C.ar    
   7 Cl7            1.1439    -4.5383    -0.1659 Cl      
   8 C8            -4.7658    -3.4580    -0.2908 C.3     
   9 C9            -5.2376    -3.0410     1.1036 C.3     
  10 N10           -6.6917    -2.8330     1.0866 N.3     
  11 C11           -7.2533    -2.9310     2.4405 C.3     
  12 C12           -8.7604    -3.1789     2.3508 C.3     
  13 C13           -9.3115    -3.4812     3.7457 C.3     
  14 O14          -10.6946    -3.8267     3.6469 O.3     
  15 C15          -11.3405    -4.1263     4.8057 C.ar    
  16 C16          -12.6839    -4.4702     4.7814 C.ar    
  17 C17          -13.3405    -4.7750     5.9576 C.ar    
  18 C18          -12.6552    -4.7372     7.1647 C.ar    
  19 C19          -11.3101    -4.3929     7.1881 C.ar    
  20 C20          -10.6538    -4.0934     6.0104 C.ar    
  21 N21          -13.3197    -5.0455     8.3570 N.am    
  22 S22          -13.7387    -3.8363     9.4080 S.o2    
  23 C23          -14.9397    -2.8341     8.4894 C.3     
  24 O24          -14.3732    -4.5122    10.4849 O.2     
  25 O25          -12.5328    -3.1114     9.6069 O.2     
  26 O26           -9.4041    -2.0159     1.8261 O.3     
  27 Cl27          -0.8775    -6.8461     0.4102 Cl      
  28 C28           -7.0322    -1.5452     0.4674 C.3     
  29 C29           -6.9442    -1.6698    -1.0319 C.ar    
  30 C30           -7.8423    -2.4722    -1.7141 C.ar    
  31 C31           -7.7605    -2.5860    -3.0917 C.ar    
  32 C32           -6.7824    -1.8988    -3.7855 C.ar    
  33 C33           -5.8848    -1.0977    -3.1053 C.ar    
  34 C34           -5.9686    -0.9776    -1.7283 C.ar    
  35 F35           -5.0914    -0.1940    -1.0638 F       
  36 F36           -8.7982    -3.1444    -1.0361 F       
  37 H37           -3.5204    -5.7983     0.2239 H       
  38 H38           -2.7516    -1.7150    -0.7375 H       
  39 H39           -0.3302    -2.1551    -0.6805 H       
  40 H40           -4.9733    -2.6562    -0.9995 H       
  41 H41           -5.2941    -4.3604    -0.5984 H       
  42 H42           -4.9910    -3.8245     1.8200 H       
  43 H43           -4.7415    -2.1146     1.3931 H       
  44 H44           -6.7802    -3.7571     2.9713 H       
  45 H45           -7.0695    -2.0008     2.9783 H       
  46 H46           -8.9506    -4.0272     1.6933 H       
  47 H47           -8.7593    -4.3135     4.1820 H       
  48 H48           -9.2013    -2.6006     4.3786 H       
  49 H49          -13.2169    -4.4992     3.8425 H       
  50 H50          -14.3867    -5.0424     5.9386 H       
  51 H51          -10.7764    -4.3632     8.1265 H       
  52 H52           -9.6076    -3.8259     6.0283 H       
  53 H53          -13.5350    -5.9675     8.5679 H       
  54 H54          -15.7519    -3.4710     8.1390 H       
  55 H55          -15.3414    -2.0593     9.1424 H       
  56 H56          -14.4475    -2.3699     7.6348 H       
  57 H57           -9.3499    -1.2421     2.4035 H       
  58 H58           -8.0466    -1.2632     0.7496 H       
  59 H59           -6.3341    -0.7814     0.8101 H       
  60 H60           -8.4609    -3.2123    -3.6242 H       
  61 H61           -6.7193    -1.9882    -4.8599 H       
  62 H62           -5.1205    -0.5617    -3.6484 H       
@<TRIPOS>BOND
   1    1    2 ar
   2    1    7 1
   3    1    6 ar
   4    2    3 ar
   5    2   27 1
   6    3    4 ar
   7    3   37 1
   8    4    5 ar
   9    4    8 1
  10    5    6 ar
  11    5   38 1
  12    6   39 1
  13    8    9 1
  14    8   40 1
  15    8   41 1
  16    9   10 1
  17    9   42 1
  18    9   43 1
  19   10   11 1
  20   10   28 1
  21   11   12 1
  22   11   44 1
  23   11   45 1
  24   12   13 1
  25   12   26 1
  26   12   46 1
  27   13   14 1
  28   13   47 1
  29   13   48 1
  30   14   15 1
  31   15   16 ar
  32   15   20 ar
  33   16   17 ar
  34   16   49 1
  35   17   18 ar
  36   17   50 1
  37   18   19 ar
  38   18   21 1
  39   19   20 ar
  40   19   51 1
  41   20   52 1
  42   21   22 am
  43   21   53 1
  44   22   23 1
  45   22   24 2
  46   22   25 2
  47   23   54 1
  48   23   55 1
  49   23   56 1
  50   26   57 1
  51   28   29 1
  52   28   58 1
  53   28   59 1
  54   29   30 ar
  55   29   34 ar
  56   30   31 ar
  57   30   36 1
  58   31   32 ar
  59   31   60 1
  60   32   33 ar
  61   32   61 1
  62   33   34 ar
  63   33   62 1
  64   34   35 1

#	End of record

