#	Name: ASD00431369
#	Creating user name:	WinNT
#	Creation time:	15. 06. 2019 18:35

#	Modifying user name:	WinNT
#	Modification time:	15. 06. 2019 18:35

#	Program:	/corina/corina34_cracker 3.40 0067  02.08.2006

@<TRIPOS>MOLECULE
ASD00431369
  40   41    0    0    0
SMALL
NO_CHARGES


@<TRIPOS>ATOM
   1 C1            -0.1109     1.1937    -0.5956 C.2     
   2 N2             0.0000    -0.0078     0.0047 N.am    
   3 O3             0.8451     1.6767    -1.1697 O.2     
   4 O4            -1.2825     1.8566    -0.5641 O.3     
   5 C5             1.1925    -0.7370    -0.1015 C.ar    
   6 C6             1.1736    -2.1216     0.0164 C.ar    
   7 C7             2.3493    -2.8393    -0.0889 C.ar    
   8 C8             3.5484    -2.1776    -0.3123 C.ar    
   9 C9             3.5674    -0.7955    -0.4295 C.ar    
  10 C10            2.3918    -0.0771    -0.3301 C.ar    
  11 O11            4.7053    -2.8842    -0.4159 O.3     
  12 S12            6.1659    -4.7836    -1.7030 S.3     
  13 C13            4.8447    -3.7246    -1.4679 C.2     
  14 N14            3.9933    -3.8413    -2.4417 N.2     
  15 C15            4.2790    -4.7058    -3.3872 C.2     
  16 C16            5.4481    -5.3646    -3.2034 C.2     
  17 C17            6.0159    -6.3799    -4.0951 C.2     
  18 N18            7.1507    -6.9384    -3.8034 N.2     
  19 O19            7.6992    -7.9193    -4.6649 O.3     
  20 Cl20          -0.3267    -2.9489     0.2965 Cl      
  21 C21           -1.3291     3.1452    -1.2316 C.3     
  22 C22           -0.9993     2.9636    -2.7145 C.3     
  23 C23           -2.7306     3.7425    -1.0902 C.3     
  24 C24           -0.3064     4.0874    -0.5933 C.3     
  25 H25           -0.7453    -0.3680     0.5103 H       
  26 H26            2.3353    -3.9153     0.0030 H       
  27 H27            4.5012    -0.2813    -0.6030 H       
  28 H28            2.4066     0.9985    -0.4260 H       
  29 H29            3.6370    -4.8770    -4.2386 H       
  30 H30            5.4900    -6.6634    -4.9948 H       
  31 H31            8.5458    -8.2773    -4.3647 H       
  32 H32           -1.7279     2.2924    -3.1692 H       
  33 H33           -1.0343     3.9310    -3.2156 H       
  34 H34           -0.0009     2.5382    -2.8153 H       
  35 H35           -2.9655     3.8719    -0.0337 H       
  36 H36           -2.7655     4.7099    -1.5913 H       
  37 H37           -3.4592     3.0713    -1.5449 H       
  38 H38            0.6920     3.6619    -0.6941 H       
  39 H39           -0.3414     5.0548    -1.0944 H       
  40 H40           -0.5414     4.2168     0.4631 H       
@<TRIPOS>BOND
   1    1    2 am
   2    1    3 2
   3    1    4 1
   4    2    5 1
   5    2   25 1
   6    4   21 1
   7    5    6 ar
   8    5   10 ar
   9    6    7 ar
  10    6   20 1
  11    7    8 ar
  12    7   26 1
  13    8    9 ar
  14    8   11 1
  15    9   10 ar
  16    9   27 1
  17   10   28 1
  18   11   13 1
  19   12   13 1
  20   12   16 1
  21   13   14 2
  22   14   15 1
  23   15   16 2
  24   15   29 1
  25   16   17 1
  26   17   18 2
  27   17   30 1
  28   18   19 1
  29   19   31 1
  30   21   22 1
  31   21   24 1
  32   21   23 1
  33   22   32 1
  34   22   33 1
  35   22   34 1
  36   23   35 1
  37   23   36 1
  38   23   37 1
  39   24   38 1
  40   24   39 1
  41   24   40 1

#	End of record

