#	Name: ASD03331737
#	Creating user name:	WinNT
#	Creation time:	15. 06. 2019 20:39

#	Modifying user name:	WinNT
#	Modification time:	15. 06. 2019 20:39

#	Program:	/corina/corina34_cracker 3.40 0067  02.08.2006

@<TRIPOS>MOLECULE
ASD03331737
  55   58    0    0    0
SMALL
NO_CHARGES


@<TRIPOS>ATOM
   1 C1            -0.0164     1.3547     0.0095 C.2     
   2 N2            -0.0021     0.0026     0.1445 N.pl3   
   3 C3            -1.2900    -0.4280     0.0970 C.2     
   4 C4            -2.0746     0.6668    -0.0633 C.2     
   5 N5            -1.2645     1.7492    -0.1086 N.2     
   6 C6             1.1447    -0.8939     0.3161 C.3     
   7 C7             0.6258    -2.2425     0.8314 C.3     
   8 N8            -0.4894    -2.7006    -0.0091 N.3     
   9 C9            -1.6921    -1.8762     0.2070 C.3     
  10 C10           -0.7763    -4.1220     0.2259 C.3     
  11 C11           -3.5448     0.6760    -0.1638 C.2     
  12 N12           -4.2021     1.8419    -0.3224 N.am    
  13 O13           -4.1650    -0.3684    -0.1037 O.2     
  14 C14           -5.6637     1.8511    -0.4224 C.3     
  15 C15           -6.0712     1.5935    -1.8502 C.2     
  16 C16           -6.1887     3.1942     0.0153 C.ar    
  17 C17           -7.3381     3.2714     0.7795 C.ar    
  18 C18           -5.5178     4.3486    -0.3425 C.ar    
  19 N19           -7.3769     1.5566    -2.1821 N.am    
  20 O20           -5.2241     1.4194    -2.7006 O.2     
  21 C21           -7.7730     1.3062    -3.5702 C.3     
  22 C22            1.1727     2.2352     0.0029 C.ar    
  23 C23            2.4406     1.6983    -0.2216 C.ar    
  24 C24            3.5455     2.5247    -0.2265 C.ar    
  25 C25            3.3980     3.8830    -0.0090 C.ar    
  26 C26            2.1434     4.4214     0.2147 C.ar    
  27 C27            1.0299     3.6066     0.2154 C.ar    
  28 C28           -5.9994     5.5806     0.0590 C.ar    
  29 C29           -7.1521     5.6581     0.8180 C.ar    
  30 C30           -7.8197     4.5033     1.1810 C.ar    
  31 H31            1.6478    -1.0347    -0.6406 H       
  32 H32            1.8403    -0.4670     1.0387 H       
  33 H33            1.4304    -2.9771     0.7979 H       
  34 H34            0.2821    -2.1295     1.8596 H       
  35 H35           -2.0992    -2.0713     1.1991 H       
  36 H36           -2.4397    -2.1094    -0.5511 H       
  37 H37           -0.9745    -4.2823     1.2857 H       
  38 H38           -1.6495    -4.4174    -0.3558 H       
  39 H39            0.0822    -4.7210    -0.0778 H       
  40 H40           -3.7075     2.6749    -0.3704 H       
  41 H41           -6.0766     1.0728     0.2194 H       
  42 H42           -7.8599     2.3692     1.0625 H       
  43 H43           -4.6172     4.2880    -0.9355 H       
  44 H44           -8.0544     1.6959    -1.5020 H       
  45 H45           -8.8605     1.3130    -3.6445 H       
  46 H46           -7.3601     2.0845    -4.2119 H       
  47 H47           -7.3933     0.3348    -3.8868 H       
  48 H48            2.5571     0.6380    -0.3909 H       
  49 H49            4.5276     2.1103    -0.4002 H       
  50 H50            4.2659     4.5256    -0.0134 H       
  51 H51            2.0348     5.4825     0.3842 H       
  52 H52            0.0510     4.0281     0.3898 H       
  53 H53           -5.4748     6.4825    -0.2200 H       
  54 H54           -7.5282     6.6206     1.1320 H       
  55 H55           -8.7203     4.5639     1.7740 H       
@<TRIPOS>BOND
   1    1    2 1
   2    1   22 1
   3    1    5 2
   4    2    3 1
   5    2    6 1
   6    3    4 2
   7    3    9 1
   8    4    5 1
   9    4   11 1
  10    6    7 1
  11    6   31 1
  12    6   32 1
  13    7    8 1
  14    7   33 1
  15    7   34 1
  16    8    9 1
  17    8   10 1
  18    9   35 1
  19    9   36 1
  20   10   37 1
  21   10   38 1
  22   10   39 1
  23   11   12 am
  24   11   13 2
  25   12   14 1
  26   12   40 1
  27   14   15 1
  28   14   16 1
  29   14   41 1
  30   15   19 am
  31   15   20 2
  32   16   17 ar
  33   16   18 ar
  34   17   30 ar
  35   17   42 1
  36   18   28 ar
  37   18   43 1
  38   19   21 1
  39   19   44 1
  40   21   45 1
  41   21   46 1
  42   21   47 1
  43   22   23 ar
  44   22   27 ar
  45   23   24 ar
  46   23   48 1
  47   24   25 ar
  48   24   49 1
  49   25   26 ar
  50   25   50 1
  51   26   27 ar
  52   26   51 1
  53   27   52 1
  54   28   29 ar
  55   28   53 1
  56   29   30 ar
  57   29   54 1
  58   30   55 1

#	End of record

