#	Name: ASD03331127
#	Creating user name:	WinNT
#	Creation time:	15. 06. 2019 20:38

#	Modifying user name:	WinNT
#	Modification time:	15. 06. 2019 20:38

#	Program:	/corina/corina34_cracker 3.40 0067  02.08.2006

@<TRIPOS>MOLECULE
ASD03331127
  47   49    0    0    0
SMALL
NO_CHARGES


@<TRIPOS>ATOM
   1 C1            -0.0158     1.3125     0.0093 C.2     
   2 C2            -2.5827     1.5025     0.0235 C.3     
   3 C3            -1.2203     2.1465     0.0197 C.2     
   4 C4            -5.0435     1.9347     0.0384 C.3     
   5 C5            -3.6602     2.5886     0.0346 C.3     
   6 C6            -6.1210     3.0209     0.0495 C.3     
   7 C7            -7.5042     2.3670     0.0534 C.3     
   8 C8            -8.5817     3.4532     0.0645 C.3     
   9 C9            -9.9442     2.8091     0.0682 C.ar    
  10 C10          -10.5629     2.5077     1.2671 C.ar    
  11 N11            0.0021    -0.0041     0.0020 N.2     
  12 O12            1.2508     1.7691    -0.0004 O.3     
  13 C13            2.0701     0.6996    -0.0139 C.2     
  14 C14            1.2642    -0.4194    -0.0123 C.2     
  15 C15            3.5467     0.7215    -0.0284 C.ar    
  16 N16            4.2229    -0.4222    -0.0414 N.ar    
  17 C17            5.5392    -0.4451    -0.0545 C.ar    
  18 C18            6.2709     0.7294    -0.0547 C.ar    
  19 C19            5.6052     1.9471    -0.0413 C.ar    
  20 C20            4.2214     1.9437    -0.0339 C.ar    
  21 O21           -1.1208     3.3558     0.0254 O.2     
  22 C22          -10.5777     2.5250    -1.1271 C.ar    
  23 C23          -11.8274     1.9342    -1.1236 C.ar    
  24 C24          -12.4435     1.6272     0.0752 C.ar    
  25 C25          -11.8126     1.9169     1.2706 C.ar    
  26 H26           -2.6962     0.8872    -0.8690 H       
  27 H27           -2.6870     0.8781     0.9109 H       
  28 H28           -5.1570     1.3195    -0.8541 H       
  29 H29           -5.1478     1.3104     0.9258 H       
  30 H30           -3.5467     3.2039     0.9271 H       
  31 H31           -3.5560     3.2130    -0.8528 H       
  32 H32           -6.0075     3.6362     0.9421 H       
  33 H33           -6.0167     3.6452    -0.8378 H       
  34 H34           -7.6177     1.7517    -0.8392 H       
  35 H35           -7.6085     1.7427     0.9407 H       
  36 H36           -8.4682     4.0685     0.9570 H       
  37 H37           -8.4775     4.0775    -0.8229 H       
  38 H38          -10.0697     2.7334     2.2010 H       
  39 H39            1.5980    -1.4465    -0.0203 H       
  40 H40            6.0552    -1.3939    -0.0649 H       
  41 H41            7.3505     0.6987    -0.0648 H       
  42 H42            6.1549     2.8768    -0.0412 H       
  43 H43            3.6714     2.8731    -0.0239 H       
  44 H44          -10.0964     2.7649    -2.0637 H       
  45 H45          -12.3227     1.7129    -2.0575 H       
  46 H46          -13.4201     1.1660     0.0779 H       
  47 H47          -12.2939     1.6770     2.2072 H       
@<TRIPOS>BOND
   1    1   11 2
   2    1   12 1
   3    1    3 1
   4    2    3 1
   5    2    5 1
   6    2   26 1
   7    2   27 1
   8    3   21 2
   9    4    5 1
  10    4    6 1
  11    4   28 1
  12    4   29 1
  13    5   30 1
  14    5   31 1
  15    6    7 1
  16    6   32 1
  17    6   33 1
  18    7    8 1
  19    7   34 1
  20    7   35 1
  21    8    9 1
  22    8   36 1
  23    8   37 1
  24    9   10 ar
  25    9   22 ar
  26   10   25 ar
  27   10   38 1
  28   11   14 1
  29   12   13 1
  30   13   14 2
  31   13   15 1
  32   14   39 1
  33   15   16 ar
  34   15   20 ar
  35   16   17 ar
  36   17   18 ar
  37   17   40 1
  38   18   19 ar
  39   18   41 1
  40   19   20 ar
  41   19   42 1
  42   20   43 1
  43   22   23 ar
  44   22   44 1
  45   23   24 ar
  46   23   45 1
  47   24   25 ar
  48   24   46 1
  49   25   47 1

#	End of record

