#	Name: ASD06610091
#	Creating user name:	WinNT
#	Creation time:	15. 06. 2019 21:07

#	Modifying user name:	WinNT
#	Modification time:	15. 06. 2019 21:07

#	Program:	/corina/corina34_cracker 3.40 0067  02.08.2006

@<TRIPOS>MOLECULE
ASD06610091
 356  355    0    0    0
SMALL
NO_CHARGES


@<TRIPOS>ATOM
   1 C1             0.9401     3.6717    -3.3026 C.2     
   2 O2             1.0766     2.5390    -3.7141 O.2     
   3 N3             3.3647     3.7826    -3.1830 N.3     
   4 C4             2.1344     4.5851    -3.1999 C.3     
   5 C5             2.1585     5.5303    -4.4028 C.3     
   6 C6             3.2972     6.5385    -4.2365 C.3     
   7 C7             3.3213     7.4837    -5.4394 C.3     
   8 N8             4.4117     8.4491    -5.2801 N.pl3   
   9 C9             4.6299     9.4045    -6.2437 C.2     
  10 N10            3.9479     9.3785    -7.3524 N.2     
  11 N11            5.5728    10.3926    -6.0358 N.am    
  12 C12           -2.6934     4.0568    -3.1941 C.2     
  13 O13           -2.6215     5.2674    -3.2086 O.2     
  14 N14           -0.2805     4.1154    -2.9425 N.am    
  15 C15           -1.4424     3.2294    -3.0480 C.3     
  16 C16           -1.5442     2.3693    -1.7867 C.3     
  17 C17           -0.3322     1.4392    -1.7044 C.3     
  18 C18           -0.4339     0.5792    -0.4432 C.3     
  19 C19            0.7781    -0.3509    -0.3609 C.3     
  20 N20            0.6804    -1.1766     0.8501 N.3     
  21 C21           -6.2932     3.4666    -2.9564 C.2     
  22 O22           -6.1372     2.3429    -2.5278 O.2     
  23 N23           -3.8922     3.4515    -3.3086 N.am    
  24 C24           -5.1083     4.2559    -3.4506 C.3     
  25 C25           -5.3132     4.6150    -4.9237 C.3     
  26 C26           -4.1721     5.5205    -5.3914 C.3     
  27 C27           -4.3739     5.8741    -6.8423 C.2     
  28 O28           -5.3321     5.4458    -7.4409 O.2     
  29 O29           -3.4891     6.6649    -7.4697 O.3     
  30 C30           -9.9313     3.7457    -3.1792 C.2     
  31 O31           -9.8684     4.6557    -3.9785 O.2     
  32 N32           -7.5263     4.0096    -2.9908 N.am    
  33 C33           -8.6781     3.2423    -2.5104 C.3     
  34 C34           -8.8063     3.4097    -0.9950 C.3     
  35 C35           -7.5897     2.7861    -0.3083 C.3     
  36 C36           -7.7179     2.9535     1.2071 C.3     
  37 N37           -6.5529     2.3563     1.8647 N.pl3   
  38 C38           -6.4468     2.3859     3.2351 C.2     
  39 N39           -7.3828     2.9453     3.9493 N.2     
  40 N40           -5.3535     1.8255     3.8522 N.pl3   
  41 C41          -13.5313     3.3701    -2.6678 C.2     
  42 O42          -13.3779     2.8010    -1.6079 O.2     
  43 N43          -11.1219     3.1845    -2.8892 N.am    
  44 C44          -12.3401     3.6738    -3.5394 C.3     
  45 C45          -12.5089     2.9815    -4.8933 C.3     
  46 C46          -12.6150     1.4697    -4.6832 C.3     
  47 C47          -12.9082     0.7882    -6.0213 C.3     
  48 C48          -11.2995     3.2898    -5.7782 C.3     
  49 C49          -17.1644     3.3527    -3.0727 C.2     
  50 O50          -17.0876     3.5234    -4.2710 O.2     
  51 N51          -14.7673     3.7310    -3.0661 N.am    
  52 C52          -15.9254     3.4357    -2.2188 C.3     
  53 C53          -16.0946     4.5472    -1.1811 C.3     
  54 C54          -14.8916     4.5499    -0.2358 C.3     
  55 C55          -15.0584     5.6446     0.7863 C.2     
  56 O56          -16.0388     6.3503     0.7613 O.2     
  57 O57          -14.1177     5.8358     1.7246 O.3     
  58 C58          -20.7535     2.7044    -2.4631 C.2     
  59 O59          -20.6105     2.5687    -1.2664 O.2     
  60 N60          -18.3578     3.0888    -2.5046 N.am    
  61 C61          -19.5622     3.0081    -3.3347 C.3     
  62 C62          -24.2010     1.6167    -2.9037 C.2     
  63 O63          -24.1859     1.5868    -4.1161 O.2     
  64 N64          -21.9778     2.5836    -3.0134 N.am    
  65 C65          -23.1512     2.3979    -2.1561 C.3     
  66 C66          -23.7163     3.7640    -1.7621 C.3     
  67 C67          -24.8628     3.5739    -0.7670 C.3     
  68 C68          -24.3246     2.9362     0.5154 C.3     
  69 C69          -25.4840     4.9331    -0.4389 C.3     
  70 C70          -27.3827    -0.0104    -2.1345 C.2     
  71 O71          -27.4707     0.5447    -1.0598 O.2     
  72 N72          -25.1566     0.9513    -2.2251 N.am    
  73 C73          -26.1190     0.1146    -2.9460 C.3     
  74 C74          -25.5185    -1.2743    -3.1720 C.3     
  75 C75          -24.3065    -1.1613    -4.0989 C.3     
  76 C76          -23.7060    -2.5503    -4.3249 C.3     
  77 N77          -22.5454    -2.4420    -5.2124 N.pl3   
  78 C78          -21.8387    -3.5687    -5.5604 C.2     
  79 N79          -22.2012    -4.7333    -5.1007 N.2     
  80 N80          -20.7496    -3.4672    -6.3932 N.pl3   
  81 C81          -30.3585    -2.1329    -2.1907 C.2     
  82 O82          -29.8882    -2.8658    -3.0348 O.2     
  83 N83          -28.4151    -0.7392    -2.6031 N.am    
  84 C84          -29.6436    -0.8608    -1.8142 C.3     
  85 C85          -30.5519     0.3375    -2.0969 C.3     
  86 C86          -29.8769     1.6176    -1.6002 C.3     
  87 C87          -30.7852     2.8159    -1.8829 C.3     
  88 C88          -30.1102     4.0959    -1.3861 C.3     
  89 N89          -30.9823     5.2464    -1.6576 N.3     
  90 C90          -33.6858    -3.5497    -1.6573 C.2     
  91 O91          -34.1113    -2.5165    -1.1857 O.2     
  92 N92          -31.5205    -2.4561    -1.5893 N.am    
  93 C93          -32.2155    -3.6928    -1.9553 C.3     
  94 C94          -31.6423    -4.8583    -1.1467 C.3     
  95 C95          -30.1813    -5.0831    -1.5414 C.3     
  96 C96          -29.6081    -6.2487    -0.7328 C.3     
  97 N97          -28.2092    -6.4639    -1.1107 N.pl3   
  98 C98          -27.4816    -7.4651    -0.5121 C.2     
  99 N99          -28.0365    -8.2229     0.3917 N.2     
 100 N100         -26.1688    -7.6671    -0.8667 N.pl3   
 101 C101         -36.5600    -5.7943    -1.4040 C.2     
 102 O102         -35.8641    -6.7847    -1.4806 O.2     
 103 N103         -34.5280    -4.5700    -1.9149 N.am    
 104 C104         -35.9573    -4.4309    -1.6253 C.3     
 105 C105         -36.6532    -3.7513    -2.8063 C.3     
 106 C106         -36.1290    -2.3214    -2.9531 C.3     
 107 C107         -36.8250    -1.6418    -4.1340 C.3     
 108 N108         -36.3230    -0.2727    -4.2746 N.pl3   
 109 C109         -36.8061     0.5373    -5.2749 C.2     
 110 N110         -36.3595     1.7554    -5.3999 N.2     
 111 N111         -37.7603     0.0624    -6.1433 N.pl3   
 112 C112         -39.9323    -7.1924    -1.2151 C.2     
 113 O113         -40.4433    -6.1546    -1.5795 O.2     
 114 N114         -37.8723    -5.9132    -1.1209 N.am    
 115 C115         -38.4582    -7.2386    -0.9057 C.3     
 116 C116         -38.2559    -7.6550     0.5526 C.3     
 117 C117         -36.7611    -7.8229     0.8324 C.3     
 118 C118         -36.5589    -8.2393     2.2907 C.3     
 119 N119         -35.1276    -8.4000     2.5586 N.pl3   
 120 C120         -34.7003    -8.7730     3.8110 C.2     
 121 N121         -33.4269    -8.9160     4.0494 N.2     
 122 N122         -35.6162    -8.9950     4.8120 N.pl3   
 123 C123         -42.8027    -9.2967    -0.4457 C.2     
 124 O124         -42.1453   -10.1981     0.0301 O.2     
 125 N125         -40.6829    -8.3045    -1.0869 N.am    
 126 C126         -42.1334    -8.2355    -1.2805 C.3     
 127 C127         -42.4625    -8.4652    -2.7569 C.3     
 128 C128         -43.9741    -8.3541    -2.9658 C.3     
 129 C129         -44.4226    -6.9172    -2.6919 C.3     
 130 C130         -44.3185    -8.7296    -4.4085 C.3     
 131 C131         -46.2383   -10.3013     0.3498 C.2     
 132 O132         -46.7738    -9.4180    -0.2858 O.2     
 133 N133         -44.1317    -9.2442    -0.2278 N.am    
 134 C134         -44.7668   -10.2178     0.6638 C.3     
 135 C135         -44.5796    -9.7767     2.1168 C.3     
 136 C136         -45.1991   -10.8189     3.0501 C.3     
 137 C137         -44.4374   -12.1392     2.9173 C.3     
 138 C138         -45.1139   -10.3241     4.4954 C.3     
 139 C139         -49.0630   -12.2885     1.5478 C.2     
 140 O140         -48.4001   -12.8118     2.4119 O.2     
 141 N141         -46.9593   -11.3575     0.7752 N.am    
 142 C142         -48.4000   -11.4134     0.5155 C.3     
 143 C143         -48.6447   -11.9944    -0.8786 C.3     
 144 O144         -48.2014   -13.3524    -0.9133 O.3     
 145 O145         -50.3900   -12.4866     1.5074 O.3     
 146 C146           6.1788    10.5044    -4.8371 C.2     
 147 O147           5.9591     9.6876    -3.9683 O.2     
 148 C148          17.7017    19.0033     7.2533 C.3     
 149 C149          16.7366    17.8459     6.9889 C.3     
 150 C150          16.1913    17.9520     5.5633 C.3     
 151 C151          15.2263    16.7946     5.2989 C.3     
 152 C152          14.6810    16.9008     3.8733 C.3     
 153 C153          13.7159    15.7433     3.6089 C.3     
 154 C154          13.1707    15.8495     2.1833 C.3     
 155 C155          12.2056    14.6921     1.9189 C.3     
 156 C156          11.6603    14.7982     0.4933 C.3     
 157 C157          10.6953    13.6408     0.2289 C.3     
 158 C158          10.1500    13.7469    -1.1967 C.3     
 159 C159           9.1849    12.5895    -1.4611 C.3     
 160 C160           8.6397    12.6956    -2.8867 C.3     
 161 C161           7.6746    11.5382    -3.1511 C.3     
 162 C162           7.1293    11.6444    -4.5767 C.3     
 163 H163           3.4493     3.2328    -4.0248 H       
 164 H164           4.1761     4.3673    -3.0500 H       
 165 H165           2.0681     5.1679    -2.2812 H       
 166 H166           2.3139     4.9538    -5.3148 H       
 167 H167           1.2090     6.0618    -4.4663 H       
 168 H168           3.1418     7.1150    -3.3245 H       
 169 H169           4.2467     6.0070    -4.1729 H       
 170 H170           3.4768     6.9072    -6.3513 H       
 171 H171           2.3718     8.0152    -5.5029 H       
 172 H172           4.9797     8.4140    -4.4945 H       
 173 H173           4.0490    10.0927    -8.0008 H       
 174 H174           5.7988    11.0060    -6.7525 H       
 175 H175          -0.3897     5.0213    -2.6134 H       
 176 H176          -1.3296     2.5844    -3.9194 H       
 177 H177          -1.5677     3.0141    -0.9082 H       
 178 H178          -2.4567     1.7744    -1.8252 H       
 179 H179          -0.3087     0.7945    -2.5830 H       
 180 H180           0.5804     2.0341    -1.6659 H       
 181 H181          -0.4574     1.2240     0.4354 H       
 182 H182          -1.3465    -0.0157    -0.4817 H       
 183 H183           0.8016    -0.9957    -1.2394 H       
 184 H184           1.6907     0.2440    -0.3223 H       
 185 H185           1.4700    -1.8001     0.9274 H       
 186 H186           0.5922    -0.6010     1.6741 H       
 187 H187          -3.9497     2.4833    -3.2970 H       
 188 H188          -5.0102     5.1695    -2.8642 H       
 189 H189          -5.3225     3.7038    -5.5218 H       
 190 H190          -6.2629     5.1368    -5.0418 H       
 191 H191          -4.1628     6.4316    -4.7932 H       
 192 H192          -3.2224     4.9986    -5.2733 H       
 193 H193          -3.6608     6.8639    -8.4003 H       
 194 H194          -7.6511     4.9084    -3.3336 H       
 195 H195          -8.5374     2.1880    -2.7489 H       
 196 H196          -8.8579     4.4705    -0.7498 H       
 197 H197          -9.7129     2.9126    -0.6499 H       
 198 H198          -7.5381     1.7253    -0.5535 H       
 199 H199          -6.6831     3.2833    -0.6533 H       
 200 H200          -7.7694     4.0143     1.4524 H       
 201 H201          -8.6244     2.4563     1.5522 H       
 202 H202          -5.8564     1.9401     1.3332 H       
 203 H203          -7.3079     2.9662     4.9162 H       
 204 H204          -4.6570     1.4092     3.3207 H       
 205 H205          -5.2787     1.8464     4.8191 H       
 206 H206         -11.1721     2.4567    -2.2500 H       
 207 H207         -12.2645     4.7509    -3.6890 H       
 208 H208         -13.4153     3.3455    -5.3770 H       
 209 H209         -11.6748     1.0918    -4.2814 H       
 210 H210         -13.4218     1.2559    -3.9821 H       
 211 H211         -12.9838    -0.2889    -5.8717 H       
 212 H212         -13.8484     1.1660    -6.4231 H       
 213 H213         -12.1014     1.0019    -6.7224 H       
 214 H214         -11.4198     2.7965    -6.7427 H       
 215 H215         -11.2239     4.3668    -5.9278 H       
 216 H216         -10.3931     2.9257    -5.2944 H       
 217 H217         -14.8900     4.1862    -3.9139 H       
 218 H218         -15.7702     2.4843    -1.7102 H       
 219 H219         -16.1609     5.5101    -1.6876 H       
 220 H220         -17.0061     4.3742    -0.6088 H       
 221 H221         -14.8254     3.5870     0.2707 H       
 222 H222         -13.9802     4.7229    -0.8081 H       
 223 H223         -14.2687     6.5502     2.3586 H       
 224 H224         -18.4192     2.9523    -1.5463 H       
 225 H225         -19.4416     2.2163    -4.0740 H       
 226 H226         -19.7174     3.9596    -3.8434 H       
 227 H227         -22.0821     2.6196    -3.9771 H       
 228 H228         -22.8624     1.8514    -1.2583 H       
 229 H229         -22.9307     4.3629    -1.3012 H       
 230 H230         -24.0875     4.2738    -2.6511 H       
 231 H231         -25.6205     2.9244    -1.2054 H       
 232 H232         -25.1209     2.8858     1.2580 H       
 233 H233         -23.9662     1.9300     0.2982 H       
 234 H234         -23.5033     3.5385     0.9038 H       
 235 H235         -25.8674     5.3874    -1.3525 H       
 236 H236         -26.3008     4.7976     0.2700 H       
 237 H237         -24.7263     5.5825    -0.0004 H       
 238 H238         -25.2070     1.0265    -1.2593 H       
 239 H239         -26.3490     0.5720    -3.9083 H       
 240 H240         -25.2069    -1.6954    -2.2161 H       
 241 H241         -26.2658    -1.9234    -3.6286 H       
 242 H242         -24.6181    -0.7402    -5.0548 H       
 243 H243         -23.5592    -0.5123    -3.6423 H       
 244 H244         -23.3944    -2.9713    -3.3690 H       
 245 H245         -24.4533    -3.1993    -4.7815 H       
 246 H246         -22.2757    -1.5753    -5.5545 H       
 247 H247         -21.7026    -5.5283    -5.3462 H       
 248 H248         -20.4798    -2.6005    -6.7353 H       
 249 H249         -20.2510    -4.2621    -6.6387 H       
 250 H250         -28.3448    -1.1832    -3.4626 H       
 251 H251         -29.3934    -0.8848    -0.7536 H       
 252 H252         -30.7300     0.4134    -3.1696 H       
 253 H253         -31.5019     0.2034    -1.5796 H       
 254 H254         -29.6989     1.5417    -0.5275 H       
 255 H255         -28.9269     1.7517    -2.1175 H       
 256 H256         -30.9633     2.8917    -2.9556 H       
 257 H257         -31.7352     2.6817    -1.3655 H       
 258 H258         -29.9322     4.0200    -0.3134 H       
 259 H259         -29.1603     4.2300    -1.9035 H       
 260 H260         -31.8925     5.1163    -1.2419 H       
 261 H261         -30.5585     6.1047    -1.3384 H       
 262 H262         -31.8967    -1.8699    -0.9142 H       
 263 H263         -32.0775    -3.8859    -3.0191 H       
 264 H264         -31.6998    -4.6259    -0.0833 H       
 265 H265         -32.2174    -5.7611    -1.3528 H       
 266 H266         -30.1239    -5.3156    -2.6048 H       
 267 H267         -29.6063    -4.1804    -1.3352 H       
 268 H268         -29.6656    -6.0162     0.3306 H       
 269 H269         -30.1832    -7.1514    -0.9390 H       
 270 H270         -27.7962    -5.9000    -1.7833 H       
 271 H271         -27.5232    -8.9293     0.8141 H       
 272 H272         -25.7558    -7.1032    -1.5393 H       
 273 H273         -25.6554    -8.3735    -0.4444 H       
 274 H274         -34.1877    -5.3963    -2.2921 H       
 275 H275         -36.0891    -3.8255    -0.7285 H       
 276 H276         -36.4472    -4.3094    -3.7196 H       
 277 H277         -37.7286    -3.7277    -2.6297 H       
 278 H278         -36.3351    -1.7633    -2.0397 H       
 279 H279         -35.0537    -2.3450    -3.1296 H       
 280 H280         -36.6189    -2.1999    -5.0474 H       
 281 H281         -37.9003    -1.6182    -3.9575 H       
 282 H282         -35.6498     0.0624    -3.6618 H       
 283 H283         -36.7004     2.3269    -6.1057 H       
 284 H284         -38.0926    -0.8441    -6.0503 H       
 285 H285         -38.1012     0.6339    -6.8491 H       
 286 H286         -38.4289    -5.1211    -1.0595 H       
 287 H287         -37.9719    -7.9614    -1.5607 H       
 288 H288         -38.6646    -6.8873     1.2097 H       
 289 H289         -38.7681    -8.5997     0.7351 H       
 290 H290         -36.3525    -8.5906     0.1753 H       
 291 H291         -36.2489    -6.8782     0.6499 H       
 292 H292         -36.9675    -7.4716     2.9478 H       
 293 H293         -37.0710    -9.1840     2.4732 H       
 294 H294         -34.4813    -8.2434     1.8524 H       
 295 H295         -33.1254    -9.1791     4.9330 H       
 296 H296         -36.5639    -8.8886     4.6346 H       
 297 H297         -35.3148    -9.2581     5.6956 H       
 298 H298         -40.2627    -9.1505    -0.8665 H       
 299 H299         -42.4942    -7.2529    -0.9764 H       
 300 H300         -41.9558    -7.7143    -3.3632 H       
 301 H301         -42.1267    -9.4588    -3.0536 H       
 302 H302         -44.4861    -9.0311    -2.2820 H       
 303 H303         -43.8342    -6.2306    -3.3007 H       
 304 H304         -45.4781    -6.8120    -2.9427 H       
 305 H305         -44.2749    -6.6853    -1.6371 H       
 306 H306         -43.9990    -9.7533    -4.6036 H       
 307 H307         -45.3954    -8.6505    -4.5573 H       
 308 H308         -43.8065    -8.0526    -5.0923 H       
 309 H309         -44.6676    -8.5618    -0.6613 H       
 310 H310         -44.3083   -11.1961     0.5192 H       
 311 H311         -43.5156    -9.6817     2.3335 H       
 312 H312         -45.0689    -8.8149     2.2705 H       
 313 H313         -46.2437   -10.9733     2.7799 H       
 314 H314         -43.4085   -12.0000     3.2490 H       
 315 H315         -44.9180   -12.8994     3.5331 H       
 316 H316         -44.4432   -12.4588     1.8752 H       
 317 H317         -45.6565    -9.3835     4.5900 H       
 318 H318         -45.5552   -11.0666     5.1602 H       
 319 H319         -44.0692   -10.1697     4.7655 H       
 320 H320         -46.5243   -12.0807     1.2534 H       
 321 H321         -48.8181   -10.4082     0.5687 H       
 322 H322         -49.7097   -11.9539    -1.1073 H       
 323 H323         -48.0923   -11.4128    -1.6167 H       
 324 H324         -48.3261   -13.7851    -1.7690 H       
 325 H325         -50.7699   -13.0557     2.1907 H       
 326 H326          18.5279    18.9567     6.5439 H       
 327 H327          17.1745    19.9501     7.1355 H       
 328 H328          18.0901    18.9277     8.2690 H       
 329 H329          17.2637    16.8991     7.1068 H       
 330 H330          15.9104    17.8925     7.6984 H       
 331 H331          15.6642    18.8988     5.4455 H       
 332 H332          17.0176    17.9054     4.8539 H       
 333 H333          15.7534    15.8479     5.4168 H       
 334 H334          14.4000    16.8412     6.0084 H       
 335 H335          14.1539    17.8475     3.7555 H       
 336 H336          15.5072    16.8542     3.1639 H       
 337 H337          14.2431    14.7966     3.7268 H       
 338 H338          12.8897    15.7899     4.3184 H       
 339 H339          12.6435    16.7962     2.0655 H       
 340 H340          13.9969    15.8029     1.4739 H       
 341 H341          12.7327    13.7453     2.0368 H       
 342 H342          11.3794    14.7386     2.6284 H       
 343 H343          11.1332    15.7450     0.3755 H       
 344 H344          12.4866    14.7516    -0.2161 H       
 345 H345          11.2224    12.6940     0.3468 H       
 346 H346           9.8690    13.6874     0.9383 H       
 347 H347           9.6229    14.6937    -1.3145 H       
 348 H348          10.9762    13.7003    -1.9061 H       
 349 H349           9.7121    11.6428    -1.3432 H       
 350 H350           8.3587    12.6361    -0.7517 H       
 351 H351           8.1125    13.6424    -3.0045 H       
 352 H352           9.4659    12.6491    -3.5961 H       
 353 H353           8.2017    10.5915    -3.0332 H       
 354 H354           6.8484    11.5848    -2.4417 H       
 355 H355           7.9556    11.5978    -5.2861 H       
 356 H356           6.6022    12.5911    -4.6945 H       
@<TRIPOS>BOND
   1    1    2 2
   2    1    4 1
   3    1   14 am
   4    3    4 1
   5    3  163 1
   6    3  164 1
   7    4    5 1
   8    4  165 1
   9    5    6 1
  10    5  166 1
  11    5  167 1
  12    6    7 1
  13    6  168 1
  14    6  169 1
  15    7    8 1
  16    7  170 1
  17    7  171 1
  18    8    9 1
  19    8  172 1
  20    9   10 2
  21    9   11 1
  22   10  173 1
  23   11  146 am
  24   11  174 1
  25   12   13 2
  26   12   15 1
  27   12   23 am
  28   14   15 1
  29   14  175 1
  30   15   16 1
  31   15  176 1
  32   16   17 1
  33   16  177 1
  34   16  178 1
  35   17   18 1
  36   17  179 1
  37   17  180 1
  38   18   19 1
  39   18  181 1
  40   18  182 1
  41   19   20 1
  42   19  183 1
  43   19  184 1
  44   20  185 1
  45   20  186 1
  46   21   22 2
  47   21   24 1
  48   21   32 am
  49   23   24 1
  50   23  187 1
  51   24   25 1
  52   24  188 1
  53   25   26 1
  54   25  189 1
  55   25  190 1
  56   26   27 1
  57   26  191 1
  58   26  192 1
  59   27   28 2
  60   27   29 1
  61   29  193 1
  62   30   31 2
  63   30   33 1
  64   30   43 am
  65   32   33 1
  66   32  194 1
  67   33   34 1
  68   33  195 1
  69   34   35 1
  70   34  196 1
  71   34  197 1
  72   35   36 1
  73   35  198 1
  74   35  199 1
  75   36   37 1
  76   36  200 1
  77   36  201 1
  78   37   38 1
  79   37  202 1
  80   38   39 2
  81   38   40 1
  82   39  203 1
  83   40  204 1
  84   40  205 1
  85   41   42 2
  86   41   44 1
  87   41   51 am
  88   43   44 1
  89   43  206 1
  90   44   45 1
  91   44  207 1
  92   45   46 1
  93   45   48 1
  94   45  208 1
  95   46   47 1
  96   46  209 1
  97   46  210 1
  98   47  211 1
  99   47  212 1
 100   47  213 1
 101   48  214 1
 102   48  215 1
 103   48  216 1
 104   49   50 2
 105   49   52 1
 106   49   60 am
 107   51   52 1
 108   51  217 1
 109   52   53 1
 110   52  218 1
 111   53   54 1
 112   53  219 1
 113   53  220 1
 114   54   55 1
 115   54  221 1
 116   54  222 1
 117   55   56 2
 118   55   57 1
 119   57  223 1
 120   58   59 2
 121   58   61 1
 122   58   64 am
 123   60   61 1
 124   60  224 1
 125   61  225 1
 126   61  226 1
 127   62   63 2
 128   62   65 1
 129   62   72 am
 130   64   65 1
 131   64  227 1
 132   65   66 1
 133   65  228 1
 134   66   67 1
 135   66  229 1
 136   66  230 1
 137   67   68 1
 138   67   69 1
 139   67  231 1
 140   68  232 1
 141   68  233 1
 142   68  234 1
 143   69  235 1
 144   69  236 1
 145   69  237 1
 146   70   71 2
 147   70   73 1
 148   70   83 am
 149   72   73 1
 150   72  238 1
 151   73   74 1
 152   73  239 1
 153   74   75 1
 154   74  240 1
 155   74  241 1
 156   75   76 1
 157   75  242 1
 158   75  243 1
 159   76   77 1
 160   76  244 1
 161   76  245 1
 162   77   78 1
 163   77  246 1
 164   78   79 2
 165   78   80 1
 166   79  247 1
 167   80  248 1
 168   80  249 1
 169   81   82 2
 170   81   84 1
 171   81   92 am
 172   83   84 1
 173   83  250 1
 174   84   85 1
 175   84  251 1
 176   85   86 1
 177   85  252 1
 178   85  253 1
 179   86   87 1
 180   86  254 1
 181   86  255 1
 182   87   88 1
 183   87  256 1
 184   87  257 1
 185   88   89 1
 186   88  258 1
 187   88  259 1
 188   89  260 1
 189   89  261 1
 190   90   91 2
 191   90   93 1
 192   90  103 am
 193   92   93 1
 194   92  262 1
 195   93   94 1
 196   93  263 1
 197   94   95 1
 198   94  264 1
 199   94  265 1
 200   95   96 1
 201   95  266 1
 202   95  267 1
 203   96   97 1
 204   96  268 1
 205   96  269 1
 206   97   98 1
 207   97  270 1
 208   98   99 2
 209   98  100 1
 210   99  271 1
 211  100  272 1
 212  100  273 1
 213  101  102 2
 214  101  104 1
 215  101  114 am
 216  103  104 1
 217  103  274 1
 218  104  105 1
 219  104  275 1
 220  105  106 1
 221  105  276 1
 222  105  277 1
 223  106  107 1
 224  106  278 1
 225  106  279 1
 226  107  108 1
 227  107  280 1
 228  107  281 1
 229  108  109 1
 230  108  282 1
 231  109  110 2
 232  109  111 1
 233  110  283 1
 234  111  284 1
 235  111  285 1
 236  112  113 2
 237  112  115 1
 238  112  125 am
 239  114  115 1
 240  114  286 1
 241  115  116 1
 242  115  287 1
 243  116  117 1
 244  116  288 1
 245  116  289 1
 246  117  118 1
 247  117  290 1
 248  117  291 1
 249  118  119 1
 250  118  292 1
 251  118  293 1
 252  119  120 1
 253  119  294 1
 254  120  121 2
 255  120  122 1
 256  121  295 1
 257  122  296 1
 258  122  297 1
 259  123  124 2
 260  123  126 1
 261  123  133 am
 262  125  126 1
 263  125  298 1
 264  126  127 1
 265  126  299 1
 266  127  128 1
 267  127  300 1
 268  127  301 1
 269  128  129 1
 270  128  130 1
 271  128  302 1
 272  129  303 1
 273  129  304 1
 274  129  305 1
 275  130  306 1
 276  130  307 1
 277  130  308 1
 278  131  132 2
 279  131  134 1
 280  131  141 am
 281  133  134 1
 282  133  309 1
 283  134  135 1
 284  134  310 1
 285  135  136 1
 286  135  311 1
 287  135  312 1
 288  136  137 1
 289  136  138 1
 290  136  313 1
 291  137  314 1
 292  137  315 1
 293  137  316 1
 294  138  317 1
 295  138  318 1
 296  138  319 1
 297  139  140 2
 298  139  142 1
 299  139  145 1
 300  141  142 1
 301  141  320 1
 302  142  143 1
 303  142  321 1
 304  143  144 1
 305  143  322 1
 306  143  323 1
 307  144  324 1
 308  145  325 1
 309  146  147 2
 310  146  162 1
 311  148  149 1
 312  148  326 1
 313  148  327 1
 314  148  328 1
 315  149  150 1
 316  149  329 1
 317  149  330 1
 318  150  151 1
 319  150  331 1
 320  150  332 1
 321  151  152 1
 322  151  333 1
 323  151  334 1
 324  152  153 1
 325  152  335 1
 326  152  336 1
 327  153  154 1
 328  153  337 1
 329  153  338 1
 330  154  155 1
 331  154  339 1
 332  154  340 1
 333  155  156 1
 334  155  341 1
 335  155  342 1
 336  156  157 1
 337  156  343 1
 338  156  344 1
 339  157  158 1
 340  157  345 1
 341  157  346 1
 342  158  159 1
 343  158  347 1
 344  158  348 1
 345  159  160 1
 346  159  349 1
 347  159  350 1
 348  160  161 1
 349  160  351 1
 350  160  352 1
 351  161  162 1
 352  161  353 1
 353  161  354 1
 354  162  355 1
 355  162  356 1

#	End of record

