#	Name: ASD01028677
#	Creating user name:	WinNT
#	Creation time:	15. 06. 2019 18:57

#	Modifying user name:	WinNT
#	Modification time:	15. 06. 2019 18:57

#	Program:	/corina/corina34_cracker 3.40 0067  02.08.2006

@<TRIPOS>MOLECULE
ASD01028677
  23   24    0    0    0
SMALL
NO_CHARGES


@<TRIPOS>ATOM
   1 C1            -0.0184     1.5028     0.0103 C.2     
   2 C2             0.0021    -0.0041     0.0020 C.3     
   3 O3             1.0197     2.1211     0.0037 O.2     
   4 O4            -1.1898     2.1580     0.0194 O.3     
   5 N5             4.8719    -1.8233     2.1405 N.ar    
   6 C6             5.0003    -2.0561     3.4241 C.ar    
   7 C7             3.9442    -1.8661     4.3130 C.ar    
   8 C8             2.7363    -1.4257     3.8522 C.ar    
   9 C9             2.6022    -1.1763     2.4732 C.ar    
  10 C10            1.3915    -0.7222     1.9266 C.ar    
  11 C11            1.3021    -0.4920     0.5875 C.ar    
  12 C12            2.3966    -0.7022    -0.2486 C.ar    
  13 C13            3.5851    -1.1424     0.2476 C.ar    
  14 C14            3.7168    -1.3909     1.6248 C.ar    
  15 F15           -1.0647    -0.4891     0.7662 F       
  16 F16           -0.1191    -0.4649    -1.3134 F       
  17 H17           -1.1523     3.1243     0.0245 H       
  18 H18            5.9498    -2.4047     3.8027 H       
  19 H19            4.0807    -2.0672     5.3653 H       
  20 H20            1.9069    -1.2734     4.5270 H       
  21 H21            0.5361    -0.5560     2.5646 H       
  22 H22            2.3002    -0.5131    -1.3075 H       
  23 H23            4.4236    -1.3006    -0.4144 H       
@<TRIPOS>BOND
   1    1    2 1
   2    1    3 2
   3    1    4 1
   4    2   11 1
   5    2   15 1
   6    2   16 1
   7    4   17 1
   8    5    6 ar
   9    5   14 ar
  10    6    7 ar
  11    6   18 1
  12    7    8 ar
  13    7   19 1
  14    8    9 ar
  15    8   20 1
  16    9   10 ar
  17    9   14 ar
  18   10   11 ar
  19   10   21 1
  20   11   12 ar
  21   12   13 ar
  22   12   22 1
  23   13   14 ar
  24   13   23 1

#	End of record

