#	Name: ASD01028143
#	Creating user name:	WinNT
#	Creation time:	15. 06. 2019 18:56

#	Modifying user name:	WinNT
#	Modification time:	15. 06. 2019 18:56

#	Program:	/corina/corina34_cracker 3.40 0067  02.08.2006

@<TRIPOS>MOLECULE
ASD01028143
  69   71    0    0    0
SMALL
NO_CHARGES


@<TRIPOS>ATOM
   1 C1             0.8353     1.0457    -0.6578 C.3     
   2 C2             1.9546     3.2656    -0.4097 C.3     
   3 C3             2.1845     1.7642    -0.5939 C.3     
   4 N4             3.0837     5.4217    -0.1695 N.am    
   5 N5             2.1015     7.7691    -3.6176 N.am    
   6 C6             1.1208     7.2105    -2.7861 C.ar    
   7 C7             1.4932     6.4821    -1.6645 C.ar    
   8 C8             2.9526     6.2918    -1.3408 C.3     
   9 C9            -0.2264     7.3902    -3.0805 C.ar    
  10 C10           -1.1952     6.8342    -2.2517 C.ar    
  11 C11           -0.8135     6.1041    -1.1364 C.ar    
  12 C12            0.5269     5.9317    -0.8445 C.ar    
  13 O13           -0.8503     8.0538    -4.0983 O.3     
  14 C14           -2.2009     7.5549    -4.1108 C.3     
  15 O15           -2.4274     7.1486    -2.7481 O.3     
  16 C16            3.3038     3.9841    -0.3459 C.3     
  17 C17            3.0016     5.9438     1.0703 C.2     
  18 C18            1.0652    -0.4557    -0.8420 C.3     
  19 O19           -0.1950    -1.1268    -0.9016 O.3     
  20 O20            3.0143     5.1324     2.1446 O.3     
  21 O21            2.9163     7.1468     1.2185 O.2     
  22 C22            2.9225     5.7640     3.4489 C.3     
  23 C23            2.9515     4.7065     4.5222 C.ar    
  24 C24            4.1584     4.3006     5.0602 C.ar    
  25 C25            4.1850     3.3306     6.0447 C.ar    
  26 C26            3.0045     2.7669     6.4916 C.ar    
  27 C27            1.7975     3.1735     5.9543 C.ar    
  28 C28            1.7707     4.1466     4.9728 C.ar    
  29 C29            1.9980     7.6495    -4.9561 C.2     
  30 O30            1.0006     7.1589    -5.4470 O.2     
  31 O31            3.0000     8.0738    -5.7494 O.3     
  32 C32            2.8200     7.9137    -7.1812 C.3     
  33 C33            1.5822     8.6930    -7.6300 C.3     
  34 C34            4.0525     8.4487    -7.9132 C.3     
  35 C35            2.6357     6.4307    -7.5094 C.3     
  36 H36            0.2874     1.2184     0.2686 H       
  37 H37            0.2580     1.4307    -1.4985 H       
  38 H38            1.3774     3.6506    -1.2504 H       
  39 H39            1.4067     3.4383     0.5166 H       
  40 H40            2.7617     1.3792     0.2468 H       
  41 H41            2.7324     1.5915    -1.5203 H       
  42 H42            2.8546     8.2416    -3.2296 H       
  43 H43            3.4066     7.2595    -1.1272 H       
  44 H44            3.4568     5.8339    -2.1918 H       
  45 H45           -1.5650     5.6723    -0.4922 H       
  46 H46            0.8195     5.3623     0.0253 H       
  47 H47           -2.8978     8.3428    -4.3965 H       
  48 H48           -2.2882     6.7023    -4.7843 H       
  49 H49            3.8811     3.5992     0.4948 H       
  50 H50            3.8517     3.8114    -1.2722 H       
  51 H51            1.6131    -0.6284    -1.7683 H       
  52 H52            1.6424    -0.8407    -0.0013 H       
  53 H53           -0.1256    -2.0843    -1.0178 H       
  54 H54            3.7650     6.4422     3.5842 H       
  55 H55            1.9902     6.3247     3.5163 H       
  56 H56            5.0806     4.7410     4.7110 H       
  57 H57            5.1280     3.0130     6.4645 H       
  58 H58            3.0253     2.0085     7.2603 H       
  59 H59            0.8753     2.7328     6.3032 H       
  60 H60            0.8276     4.4642     4.5530 H       
  61 H61            1.7135     9.7495    -7.3962 H       
  62 H62            1.4471     8.5728    -8.7049 H       
  63 H63            0.7041     8.3119    -7.1086 H       
  64 H64            4.9344     7.8935    -7.5935 H       
  65 H65            3.9174     8.3284    -8.9880 H       
  66 H66            4.1838     9.5052    -7.6794 H       
  67 H67            1.7576     6.0496    -6.9880 H       
  68 H68            2.5006     6.3105    -8.5843 H       
  69 H69            3.5175     5.8755    -7.1897 H       
@<TRIPOS>BOND
   1    1   18 1
   2    1    3 1
   3    1   36 1
   4    1   37 1
   5    2    3 1
   6    2   16 1
   7    2   38 1
   8    2   39 1
   9    3   40 1
  10    3   41 1
  11    4   16 1
  12    4   17 am
  13    4    8 1
  14    5    6 1
  15    5   29 am
  16    5   42 1
  17    6    7 ar
  18    6    9 ar
  19    7    8 1
  20    7   12 ar
  21    8   43 1
  22    8   44 1
  23    9   10 ar
  24    9   13 1
  25   10   11 ar
  26   10   15 1
  27   11   12 ar
  28   11   45 1
  29   12   46 1
  30   13   14 1
  31   14   15 1
  32   14   47 1
  33   14   48 1
  34   16   49 1
  35   16   50 1
  36   17   20 1
  37   17   21 2
  38   18   19 1
  39   18   51 1
  40   18   52 1
  41   19   53 1
  42   20   22 1
  43   22   23 1
  44   22   54 1
  45   22   55 1
  46   23   24 ar
  47   23   28 ar
  48   24   25 ar
  49   24   56 1
  50   25   26 ar
  51   25   57 1
  52   26   27 ar
  53   26   58 1
  54   27   28 ar
  55   27   59 1
  56   28   60 1
  57   29   30 2
  58   29   31 1
  59   31   32 1
  60   32   33 1
  61   32   34 1
  62   32   35 1
  63   33   61 1
  64   33   62 1
  65   33   63 1
  66   34   64 1
  67   34   65 1
  68   34   66 1
  69   35   67 1
  70   35   68 1
  71   35   69 1

#	End of record

