#	Name: ASD01870502
#	Creating user name:	WinNT
#	Creation time:	15. 06. 2019 19:39

#	Modifying user name:	WinNT
#	Modification time:	15. 06. 2019 19:39

#	Program:	/corina/corina34_cracker 3.40 0067  02.08.2006

@<TRIPOS>MOLECULE
ASD01870502
  39   42    0    0    0
SMALL
NO_CHARGES


@<TRIPOS>ATOM
   1 C1            -0.0300     1.3320    -0.2305 C.ar    
   2 N2            -0.0274     0.0165    -0.1083 N.ar    
   3 C3             1.0742    -0.6677     0.1253 C.ar    
   4 C4             2.3026    -0.0317     0.2561 C.ar    
   5 C5             2.3522     1.3472     0.1360 C.ar    
   6 C6             1.1517     2.0463    -0.1141 C.ar    
   7 C7             3.4130     2.3740     0.2053 C.2     
   8 N8             2.8516     3.5815     0.0070 N.am    
   9 C9             1.5245     3.4724    -0.1880 C.2     
  10 O10            0.7605     4.3944    -0.3915 O.2     
  11 O11            4.5916     2.1641     0.4075 O.2     
  12 C12            3.5573     4.7945     0.0053 C.ar    
  13 C13            4.0904     5.2857    -1.1787 C.ar    
  14 C14            4.7842     6.4791    -1.1810 C.ar    
  15 C15            4.9494     7.1891     0.0015 C.ar    
  16 C16            4.4164     6.6983     1.1863 C.ar    
  17 C17            3.7175     5.5066     1.1874 C.ar    
  18 Cl18           3.0453     4.8957     2.6668 Cl      
  19 N19            5.6532     8.3986    -0.0010 N.am    
  20 C20            6.4259     8.7309     1.0521 C.2     
  21 C21            7.2469     9.9538     1.0069 C.2     
  22 O22            6.4456     8.0214     2.0398 O.2     
  23 N23            8.0699    10.4027     2.0016 N.pl3   
  24 C24            8.6376    11.5560     1.5585 C.2     
  25 C25            8.1533    11.7851     0.3132 C.2     
  26 N26            7.3176    10.7979    -0.0004 N.2     
  27 C27            8.2970     9.7625     3.2996 C.3     
  28 H28           -0.9560     1.8523    -0.4263 H       
  29 H29            1.0213    -1.7425     0.2170 H       
  30 H30            3.2002    -0.6009     0.4478 H       
  31 H31            3.9625     4.7339    -2.0982 H       
  32 H32            5.1990     6.8606    -2.1023 H       
  33 H33            4.5447     7.2501     2.1058 H       
  34 H34            5.5850     8.9979    -0.7607 H       
  35 H35            9.3412    12.1732     2.0972 H       
  36 H36            8.4058    12.6239    -0.3185 H       
  37 H37            9.1317     9.0660     3.2201 H       
  38 H38            8.5287    10.5238     4.0445 H       
  39 H39            7.3997     9.2215     3.5998 H       
@<TRIPOS>BOND
   1    1    2 ar
   2    1    6 ar
   3    1   28 1
   4    2    3 ar
   5    3    4 ar
   6    3   29 1
   7    4    5 ar
   8    4   30 1
   9    5    7 1
  10    5    6 ar
  11    6    9 1
  12    7    8 am
  13    7   11 2
  14    8    9 am
  15    8   12 1
  16    9   10 2
  17   12   13 ar
  18   12   17 ar
  19   13   14 ar
  20   13   31 1
  21   14   15 ar
  22   14   32 1
  23   15   16 ar
  24   15   19 1
  25   16   17 ar
  26   16   33 1
  27   17   18 1
  28   19   20 am
  29   19   34 1
  30   20   21 1
  31   20   22 2
  32   21   23 1
  33   21   26 2
  34   23   24 1
  35   23   27 1
  36   24   25 2
  37   24   35 1
  38   25   26 1
  39   25   36 1
  40   27   37 1
  41   27   38 1
  42   27   39 1

#	End of record

