#	Name: ASD01870613
#	Creating user name:	WinNT
#	Creation time:	15. 06. 2019 19:39

#	Modifying user name:	WinNT
#	Modification time:	15. 06. 2019 19:39

#	Program:	/corina/corina34_cracker 3.40 0067  02.08.2006

@<TRIPOS>MOLECULE
ASD01870613
  39   42    0    0    0
SMALL
NO_CHARGES


@<TRIPOS>ATOM
   1 C1             0.0028     1.3687    -0.0383 C.ar    
   2 C2             0.0255    -0.0191    -0.0502 C.ar    
   3 C3             1.2278    -0.6996    -0.0619 C.ar    
   4 C4             2.4286    -0.0063    -0.0615 C.ar    
   5 C5             2.4228     1.3789    -0.0497 C.ar    
   6 C6             1.1965     2.0751    -0.0382 C.ar    
   7 C7             3.4760     2.4157    -0.0452 C.2     
   8 N8             2.8867     3.6249    -0.0320 N.am    
   9 C9             1.5464     3.5100    -0.0267 C.2     
  10 C10            3.5764     4.8412    -0.0242 C.ar    
  11 C11            4.9618     4.8457    -0.1355 C.ar    
  12 C12            5.6350     6.0538    -0.1272 C.ar    
  13 C13            4.8917     7.2269    -0.0069 C.ar    
  14 C14            3.5109     7.1443     0.1000 C.ar    
  15 N15            2.9023     5.9743     0.0834 N.ar    
  16 O16            0.7560     4.4322    -0.0150 O.2     
  17 O17            4.6730     2.2105    -0.0523 O.2     
  18 N18            5.5304     8.4727     0.0065 N.am    
  19 C19            6.7417     8.6028     0.5831 C.2     
  20 C20            7.4628     9.8764     0.4947 C.2     
  21 O21            7.2370     7.6630     1.1771 O.2     
  22 C22            8.6904    10.1425     1.0305 C.2     
  23 C23            8.9929    11.4739     0.7048 C.2     
  24 C24            7.9500    11.9561    -0.0065 C.2     
  25 O25            7.0323    10.9891    -0.1353 O.3     
  26 C26            9.5528     9.1912     1.8194 C.3     
  27 Cl27          -1.5122     2.2163    -0.0308 Cl      
  28 H28           -0.9030    -0.5707    -0.0499 H       
  29 H29            1.2323    -1.7795    -0.0711 H       
  30 H30            3.3650    -0.5443    -0.0700 H       
  31 H31            5.5060     3.9173    -0.2268 H       
  32 H32            6.7112     6.0875    -0.2117 H       
  33 H33            2.9276     8.0483     0.1940 H       
  34 H34            5.1012     9.2423    -0.3991 H       
  35 H35            9.8901    12.0119     0.9729 H       
  36 H36            7.8712    12.9556    -0.4081 H       
  37 H37           10.2086     8.6467     1.1400 H       
  38 H38           10.1550     9.7534     2.5331 H       
  39 H39            8.9185     8.4854     2.3557 H       
@<TRIPOS>BOND
   1    1    2 ar
   2    1    6 ar
   3    1   27 1
   4    2    3 ar
   5    2   28 1
   6    3    4 ar
   7    3   29 1
   8    4    5 ar
   9    4   30 1
  10    5    7 1
  11    5    6 ar
  12    6    9 1
  13    7    8 am
  14    7   17 2
  15    8    9 am
  16    8   10 1
  17    9   16 2
  18   10   11 ar
  19   10   15 ar
  20   11   12 ar
  21   11   31 1
  22   12   13 ar
  23   12   32 1
  24   13   14 ar
  25   13   18 1
  26   14   15 ar
  27   14   33 1
  28   18   19 am
  29   18   34 1
  30   19   20 1
  31   19   21 2
  32   20   22 2
  33   20   25 1
  34   22   23 1
  35   22   26 1
  36   23   24 2
  37   23   35 1
  38   24   25 1
  39   24   36 1
  40   26   37 1
  41   26   38 1
  42   26   39 1

#	End of record

