#	Name: ASD01890036
#	Creating user name:	WinNT
#	Creation time:	15. 06. 2019 19:50

#	Modifying user name:	WinNT
#	Modification time:	15. 06. 2019 19:50

#	Program:	/corina/corina34_cracker 3.40 0067  02.08.2006

@<TRIPOS>MOLECULE
ASD01890036
  39   40    0    0    0
SMALL
NO_CHARGES


@<TRIPOS>ATOM
   1 C1            -0.5057     0.0283    -1.4784 C.2     
   2 C2             0.1309     0.3173    -0.1434 C.3     
   3 C3             1.4719    -0.4132    -0.0490 C.3     
   4 C4             2.1910     0.0046     1.2352 C.3     
   5 C5             3.5707    -0.6012     1.2583 C.2     
   6 O6             0.1049    -0.5905    -2.3176 O.2     
   7 O7            -1.7531     0.4536    -1.7333 O.3     
   8 O8             3.9833    -1.2068     0.2917 O.2     
   9 N9             4.3461    -0.4699     2.3528 N.am    
  10 C10            1.2332    -1.9010    -0.0298 C.ar    
  11 C11            1.7742    -2.7004    -1.0195 C.ar    
  12 C12            1.5556    -4.0650    -1.0024 C.ar    
  13 C13            0.7953    -4.6310     0.0054 C.ar    
  14 C14            0.2541    -3.8305     0.9956 C.ar    
  15 C15            0.4781    -2.4667     0.9806 C.ar    
  16 Cl16           0.5198    -6.3449     0.0272 Cl      
  17 C17            5.6693    -0.9304     2.3332 C.ar    
  18 C18            6.3362    -1.1899     3.5287 C.ar    
  19 C19            7.6441    -1.6448     3.5041 C.ar    
  20 C20            8.2861    -1.8404     2.2950 C.ar    
  21 C21            7.6252    -1.5827     1.1073 C.ar    
  22 C22            6.3165    -1.1344     1.1238 C.ar    
  23 Cl23           8.4371    -1.8297    -0.4071 Cl      
  24 O24            5.7044    -0.9964     4.7173 O.3     
  25 H25            0.2938     1.3904    -0.0432 H       
  26 H26           -0.5270    -0.0263     0.6549 H       
  27 H27            2.0877    -0.1551    -0.9106 H       
  28 H28            2.2706     1.0911     1.2701 H       
  29 H29            1.6257    -0.3461     2.0987 H       
  30 H30           -2.1191     0.2443    -2.6035 H       
  31 H31            3.9881    -0.0568     3.1540 H       
  32 H32            2.3674    -2.2584    -1.8064 H       
  33 H33            1.9780    -4.6894    -1.7758 H       
  34 H34           -0.3395    -4.2717     1.7826 H       
  35 H35            0.0594    -1.8422     1.7559 H       
  36 H36            8.1630    -1.8466     4.4296 H       
  37 H37            9.3061    -2.1949     2.2778 H       
  38 H38            5.8008    -0.9388     0.1953 H       
  39 H39            5.2309    -1.7744     5.0423 H       
@<TRIPOS>BOND
   1    1    2 1
   2    1    6 2
   3    1    7 1
   4    2    3 1
   5    2   25 1
   6    2   26 1
   7    3    4 1
   8    3   10 1
   9    3   27 1
  10    4    5 1
  11    4   28 1
  12    4   29 1
  13    5    8 2
  14    5    9 am
  15    7   30 1
  16    9   17 1
  17    9   31 1
  18   10   11 ar
  19   10   15 ar
  20   11   12 ar
  21   11   32 1
  22   12   13 ar
  23   12   33 1
  24   13   14 ar
  25   13   16 1
  26   14   15 ar
  27   14   34 1
  28   15   35 1
  29   17   18 ar
  30   17   22 ar
  31   18   19 ar
  32   18   24 1
  33   19   20 ar
  34   19   36 1
  35   20   21 ar
  36   20   37 1
  37   21   22 ar
  38   21   23 1
  39   22   38 1
  40   24   39 1

#	End of record

