#	Name: ASD02198244
#	Creating user name:	WinNT
#	Creation time:	15. 06. 2019 20:19

#	Modifying user name:	WinNT
#	Modification time:	15. 06. 2019 20:19

#	Program:	/corina/corina34_cracker 3.40 0067  02.08.2006

@<TRIPOS>MOLECULE
ASD02198244
  47   50    0    0    0
SMALL
NO_CHARGES


@<TRIPOS>ATOM
   1 C1            -0.0164     1.3566     0.0095 C.2     
   2 C2             0.0021    -0.0041     0.0020 C.2     
   3 C3            -1.2569    -0.8323     0.0091 C.3     
   4 S4             1.6264     1.9816    -0.0028 S.3     
   5 C5             2.2884     0.3528    -0.0179 C.2     
   6 C6             1.2559    -0.5650    -0.0130 C.2     
   7 C7             3.6574     0.0336    -0.0331 C.2     
   8 C8             4.6665     1.1112    -0.0369 C.2     
   9 O9             4.0116    -1.1340    -0.0432 O.2     
  10 N10            1.4676    -1.9387    -0.0216 N.pl3   
  11 N11           -1.1597     2.1336     0.0193 N.pl3   
  12 C12           -1.0524     3.5946     0.0267 C.3     
  13 C13           -2.3235     4.2195    -0.5746 C.3     
  14 O14            4.4318     2.4365    -0.0266 O.3     
  15 C15           -2.9511     5.0926     0.5315 C.3     
  16 C16           -1.7650     5.4281     1.4694 C.3     
  17 C17           -0.9520     4.1098     1.4774 C.3     
  18 N18            5.4592     3.0732    -0.0328 N.2     
  19 C19            6.5132     2.2957    -0.0477 C.2     
  20 C20            6.0251     0.9613    -0.0455 C.2     
  21 C21            7.9347     2.7235    -0.0590 C.ar    
  22 C22            8.2570     4.0789    -0.0535 C.ar    
  23 C23            8.9513     1.7710    -0.0694 C.ar    
  24 C24           10.2713     2.1742    -0.0799 C.ar    
  25 C25           10.5856     3.5212    -0.0801 C.ar    
  26 C26            9.5803     4.4711    -0.0641 C.ar    
  27 H27           -1.5699    -1.0264    -1.0168 H       
  28 H28           -1.0667    -1.7782     0.5161 H       
  29 H29           -2.0448    -0.2912     0.5331 H       
  30 H30            2.3717    -2.2900    -0.0320 H       
  31 H31            0.7113    -2.5460    -0.0173 H       
  32 H32           -2.0330     1.7114     0.0213 H       
  33 H33           -0.1772     3.9074    -0.5428 H       
  34 H34           -2.0650     4.8362    -1.4354 H       
  35 H35           -3.0202     3.4357    -0.8720 H       
  36 H36           -3.3707     6.0042     0.1060 H       
  37 H37           -3.7169     4.5341     1.0698 H       
  38 H38           -1.1704     6.2462     1.0628 H       
  39 H39           -2.1208     5.6686     2.4713 H       
  40 H40           -1.3950     3.3926     2.1684 H       
  41 H41            0.0874     4.3041     1.7421 H       
  42 H42            6.5942     0.0435    -0.0550 H       
  43 H43            7.4727     4.8213    -0.0413 H       
  44 H44            8.7070     0.7190    -0.0689 H       
  45 H45           11.0602     1.4366    -0.0876 H       
  46 H46           11.6198     3.8324    -0.0880 H       
  47 H47            9.8311     5.5215    -0.0647 H       
@<TRIPOS>BOND
   1    1    2 2
   2    1    4 1
   3    1   11 1
   4    2    3 1
   5    2    6 1
   6    3   27 1
   7    3   28 1
   8    3   29 1
   9    4    5 1
  10    5    6 2
  11    5    7 1
  12    6   10 1
  13    7    8 1
  14    7    9 2
  15    8   14 1
  16    8   20 2
  17   10   30 1
  18   10   31 1
  19   11   12 1
  20   11   32 1
  21   12   13 1
  22   12   17 1
  23   12   33 1
  24   13   15 1
  25   13   34 1
  26   13   35 1
  27   14   18 1
  28   15   16 1
  29   15   36 1
  30   15   37 1
  31   16   17 1
  32   16   38 1
  33   16   39 1
  34   17   40 1
  35   17   41 1
  36   18   19 2
  37   19   20 1
  38   19   21 1
  39   20   42 1
  40   21   22 ar
  41   21   23 ar
  42   22   26 ar
  43   22   43 1
  44   23   24 ar
  45   23   44 1
  46   24   25 ar
  47   24   45 1
  48   25   26 ar
  49   25   46 1
  50   26   47 1

#	End of record

