#	Name: ASD01940165
#	Creating user name:	WinNT
#	Creation time:	15. 06. 2019 20:11

#	Modifying user name:	WinNT
#	Modification time:	15. 06. 2019 20:11

#	Program:	/corina/corina34_cracker 3.40 0067  02.08.2006

@<TRIPOS>MOLECULE
ASD01940165
  42   43    0    0    0
SMALL
NO_CHARGES


@<TRIPOS>ATOM
   1 I1             2.0211    -4.2540    -1.9900 I       
   2 F2             2.0285     2.2225     1.9687 F       
   3 C3             1.1308     2.7313     1.0966 C.ar    
   4 C4             1.3174     2.5645    -0.2692 C.ar    
   5 C5             0.3882     3.0909    -1.1651 C.ar    
   6 C6            -0.7178     3.7786    -0.6887 C.ar    
   7 C7            -0.8982     3.9420     0.6725 C.ar    
   8 C8             0.0202     3.4153     1.5646 C.ar    
   9 N9             2.4372     1.8690    -0.7457 N.pl3   
  10 N10            0.5717     2.9259    -2.5445 N.am    
  11 C11            2.3449     0.5017    -1.0237 C.ar    
  12 C12            1.1857    -0.1952    -0.7109 C.ar    
  13 C13            1.0971    -1.5462    -0.9872 C.ar    
  14 C14            2.1615    -2.2055    -1.5744 C.ar    
  15 C15            3.3193    -1.5153    -1.8877 C.ar    
  16 C16            3.4126    -0.1624    -1.6198 C.ar    
  17 F17            4.5428     0.5116    -1.9256 F       
  18 F18           -0.1641     3.5727     2.8936 F       
  19 S19            0.1641     4.1472    -3.5859 S.o2    
  20 O20            0.5866     3.6780    -4.8589 O.2     
  21 O21           -1.2087     4.3951    -3.3152 O.2     
  22 C22            1.3982     6.7748    -5.1062 C.3     
  23 C23            0.4256     7.4594    -6.0687 C.3     
  24 C24            2.7020     7.5731    -5.0451 C.3     
  25 C25            1.1813     5.5525    -3.0558 C.3     
  26 O26            0.8152     6.7143    -3.8029 O.3     
  27 H27           -1.4387     4.1871    -1.3814 H       
  28 H28           -1.7602     4.4783     1.0409 H       
  29 H29            3.2762     2.3363    -0.8827 H       
  30 H30            0.9374     2.0963    -2.8894 H       
  31 H31            0.3539     0.3182    -0.2516 H       
  32 H32            0.1952    -2.0882    -0.7437 H       
  33 H33            4.1489    -2.0331    -2.3459 H       
  34 H34            1.6069     5.7645    -5.4581 H       
  35 H35            0.2169     8.4697    -5.7167 H       
  36 H36            0.8703     7.5055    -7.0628 H       
  37 H37           -0.5032     6.8906    -6.1122 H       
  38 H38            3.4255     7.0406    -4.4277 H       
  39 H39            3.1021     7.6931    -6.0519 H       
  40 H40            2.5073     8.5543    -4.6122 H       
  41 H41            1.0200     5.7377    -1.9938 H       
  42 H42            2.2332     5.3255    -3.2293 H       
@<TRIPOS>BOND
   1    1   14 1
   2    2    3 1
   3    3    4 ar
   4    3    8 ar
   5    4    5 ar
   6    4    9 1
   7    5    6 ar
   8    5   10 1
   9    6    7 ar
  10    6   27 1
  11    7    8 ar
  12    7   28 1
  13    8   18 1
  14    9   11 1
  15    9   29 1
  16   10   19 am
  17   10   30 1
  18   11   12 ar
  19   11   16 ar
  20   12   13 ar
  21   12   31 1
  22   13   14 ar
  23   13   32 1
  24   14   15 ar
  25   15   16 ar
  26   15   33 1
  27   16   17 1
  28   19   20 2
  29   19   21 2
  30   19   25 1
  31   22   23 1
  32   22   26 1
  33   22   24 1
  34   22   34 1
  35   23   35 1
  36   23   36 1
  37   23   37 1
  38   24   38 1
  39   24   39 1
  40   24   40 1
  41   25   26 1
  42   25   41 1
  43   25   42 1

#	End of record

