#	Name: ASD01320027
#	Creating user name:	WinNT
#	Creation time:	15. 06. 2019 19:15

#	Modifying user name:	WinNT
#	Modification time:	15. 06. 2019 19:15

#	Program:	/corina/corina34_cracker 3.40 0067  02.08.2006

@<TRIPOS>MOLECULE
ASD01320027
  24   23    0    0    0
SMALL
NO_CHARGES


@<TRIPOS>ATOM
   1 S1            -0.0259     2.0557     0.0133 S.3     
   2 S2             0.0021    -0.0041     0.0020 S.3     
   3 S3             0.2576     0.9984     2.7810 S.2     
   4 S4             2.7740     1.0796    -0.0186 S.2     
   5 N5             0.2308    -1.5766     2.1303 N.am    
   6 N6             2.0996     3.6485     0.0016 N.am    
   7 C7             3.5387     3.9225    -0.0107 C.3     
   8 C8             1.1428     4.7579     0.0167 C.3     
   9 C9             0.3737    -1.8370     3.5649 C.3     
  10 C10            0.1550    -2.6948     1.1869 C.3     
  11 C11            1.6559     2.3759    -0.0010 C.2     
  12 C12            0.1691    -0.3083     1.6785 C.2     
  13 H13            3.9054     3.9850     1.0139 H       
  14 H14            4.0571     3.1190    -0.5338 H       
  15 H15            3.7243     4.8675    -0.5212 H       
  16 H16            1.6837     5.7042     0.0166 H       
  17 H17            0.5079     4.7021    -0.8676 H       
  18 H18            0.5249     4.6926     0.9123 H       
  19 H19            1.4319    -1.8871     3.8214 H       
  20 H20           -0.0992    -1.0330     4.1289 H       
  21 H21           -0.1053    -2.7845     3.8117 H       
  22 H22            0.2212    -3.6359     1.7328 H       
  23 H23           -0.7921    -2.6527     0.6489 H       
  24 H24            0.9794    -2.6278     0.4770 H       
@<TRIPOS>BOND
   1    1    2 1
   2    1   11 1
   3    2   12 1
   4    3   12 2
   5    4   11 2
   6    5    9 1
   7    5   10 1
   8    5   12 am
   9    6    7 1
  10    6    8 1
  11    6   11 am
  12    7   13 1
  13    7   14 1
  14    7   15 1
  15    8   16 1
  16    8   17 1
  17    8   18 1
  18    9   19 1
  19    9   20 1
  20    9   21 1
  21   10   22 1
  22   10   23 1
  23   10   24 1

#	End of record

