#	Name: ASD01120052
#	Creating user name:	WinNT
#	Creation time:	15. 06. 2019 18:58

#	Modifying user name:	WinNT
#	Modification time:	15. 06. 2019 18:58

#	Program:	/corina/corina34_cracker 3.40 0067  02.08.2006

@<TRIPOS>MOLECULE
ASD01120052
  51   54    0    0    0
SMALL
NO_CHARGES


@<TRIPOS>ATOM
   1 C1            -0.0893     1.3593     0.6733 C.ar    
   2 C2            -0.0575    -0.0354     0.5364 C.ar    
   3 C3            -1.1963    -0.7359     0.2049 C.ar    
   4 C4            -2.3972    -0.0448     0.0035 C.ar    
   5 C5            -2.4217     1.3650     0.1441 C.ar    
   6 C6            -1.2514     2.0527     0.4868 C.ar    
   7 N7            -3.5340    -0.6803    -0.3214 N.ar    
   8 C8            -4.6441    -0.0056    -0.5042 C.ar    
   9 N9            -4.7146     1.3105    -0.3838 N.ar    
  10 C10           -3.6500     2.0357    -0.0661 C.ar    
  11 N11           -3.7382     3.4078     0.0565 N.pl3   
  12 C12           -4.9826     4.0393    -0.0338 C.ar    
  13 C13           -6.1283     3.3763     0.3785 C.ar    
  14 C14           -7.3655     4.0095     0.2871 C.ar    
  15 C15           -7.4454     5.3061    -0.2181 C.ar    
  16 C16           -6.3001     5.9601    -0.6272 C.ar    
  17 C17           -5.0708     5.3350    -0.5318 C.ar    
  18 C18           -8.5953     3.3055     0.7260 C.2     
  19 O19            1.0480     2.0288     1.0008 O.3     
  20 O20            1.1090    -0.7034     0.7325 O.3     
  21 C21            0.9516     3.4491     1.1257 C.3     
  22 C22            2.3208     4.0227     1.4960 C.3     
  23 C23            1.0771    -2.1237     0.5785 C.3     
  24 C24            2.4724    -2.6961     0.8363 C.3     
  25 C25           -9.8215     3.8627     0.6634 C.2     
  26 S26          -10.9812     2.6885     1.2800 S.3     
  27 C27           -9.7194     1.5703     1.5609 C.2     
  28 N28           -8.5863     2.0715     1.2089 N.2     
  29 C29           -9.9072     0.1892     2.1339 C.3     
  30 Br30          -3.5073     6.2377    -1.0943 Br      
  31 H31           -1.1629    -1.8103     0.1007 H       
  32 H32           -1.2656     3.1271     0.5953 H       
  33 H33           -5.5405    -0.5485    -0.7651 H       
  34 H34           -2.9370     3.9340     0.2053 H       
  35 H35           -6.0617     2.3716     0.7690 H       
  36 H36           -8.4035     5.7993    -0.2900 H       
  37 H37           -6.3644     6.9646    -1.0187 H       
  38 H38            0.6232     3.8757     0.1779 H       
  39 H39            0.2309     3.6973     1.9049 H       
  40 H40            2.2473     5.1060     1.5912 H       
  41 H41            2.6492     3.5961     2.4438 H       
  42 H42            3.0415     3.7745     0.7168 H       
  43 H43            0.3718    -2.5507     1.2914 H       
  44 H44            0.7641    -2.3723    -0.4356 H       
  45 H45            3.1777    -2.2691     0.1234 H       
  46 H46            2.7854    -2.4476     1.8504 H       
  47 H47            2.4480    -3.7795     0.7189 H       
  48 H48          -10.0520     4.8531     0.2998 H       
  49 H49          -10.9647     0.0208     2.3372 H       
  50 H50           -9.5522    -0.5524     1.4182 H       
  51 H51           -9.3403     0.1002     3.0606 H       
@<TRIPOS>BOND
   1    1    2 ar
   2    1   19 1
   3    1    6 ar
   4    2    3 ar
   5    2   20 1
   6    3    4 ar
   7    3   31 1
   8    4    5 ar
   9    4    7 ar
  10    5    6 ar
  11    5   10 ar
  12    6   32 1
  13    7    8 ar
  14    8    9 ar
  15    8   33 1
  16    9   10 ar
  17   10   11 1
  18   11   12 1
  19   11   34 1
  20   12   13 ar
  21   12   17 ar
  22   13   14 ar
  23   13   35 1
  24   14   15 ar
  25   14   18 1
  26   15   16 ar
  27   15   36 1
  28   16   17 ar
  29   16   37 1
  30   17   30 1
  31   18   25 2
  32   18   28 1
  33   19   21 1
  34   20   23 1
  35   21   22 1
  36   21   38 1
  37   21   39 1
  38   22   40 1
  39   22   41 1
  40   22   42 1
  41   23   24 1
  42   23   43 1
  43   23   44 1
  44   24   45 1
  45   24   46 1
  46   24   47 1
  47   25   26 1
  48   25   48 1
  49   26   27 1
  50   27   28 2
  51   27   29 1
  52   29   49 1
  53   29   50 1
  54   29   51 1

#	End of record

