#	Name: ASD07931634
#	Creating user name:	WinNT
#	Creation time:	15. 06. 2019 21:13

#	Modifying user name:	WinNT
#	Modification time:	15. 06. 2019 21:13

#	Program:	/corina/corina34_cracker 3.40 0067  02.08.2006

@<TRIPOS>MOLECULE
ASD07931634
  66   71    0    0    0
SMALL
NO_CHARGES


@<TRIPOS>ATOM
   1 C1            -0.0178     1.4608     0.0101 C.3     
   2 N2             0.0021    -0.0041     0.0020 N.am    
   3 N3             0.5952    -0.7998     0.9854 N.2     
   4 C4             0.4551    -2.0643     0.7116 C.2     
   5 C5            -0.2942    -2.1595    -0.5619 C.2     
   6 C6            -0.5553    -0.7781    -0.9541 C.2     
   7 O7            -1.1513    -0.3987    -1.9492 O.2     
   8 C8             0.8558    -3.3309     1.3544 C.ar    
   9 C9             0.5051    -4.5365     0.7246 C.ar    
  10 N10           -0.1977    -4.5276    -0.4680 N.pl3   
  11 C11           -0.5808    -3.3970    -1.0826 C.2     
  12 C12            1.5627    -3.3461     2.5520 C.ar    
  13 C13            1.9191    -4.5520     3.1204 C.ar    
  14 C14            1.5751    -5.7429     2.5015 C.ar    
  15 C15            0.8733    -5.7408     1.3139 C.ar    
  16 C16           -0.5399    -5.8104    -1.0874 C.3     
  17 C17           -1.8812    -6.2720    -0.5786 C.ar    
  18 C18           -3.0356    -5.9048    -1.2453 C.ar    
  19 C19           -4.2664    -6.3263    -0.7814 C.ar    
  20 C20           -4.3437    -7.1195     0.3555 C.ar    
  21 C21           -3.1828    -7.4865     1.0227 C.ar    
  22 C22           -1.9546    -7.0666     0.5507 C.ar    
  23 C23           -0.7339     1.9542     1.2689 C.3     
  24 O24           -2.0961     1.4516     1.2792 O.3     
  25 N25           -5.5915    -7.5485     0.8290 N.pl3   
  26 C26            1.4176     1.9904    -0.0008 C.3     
  27 C27            2.1576     1.4835     1.2387 C.3     
  28 C28            1.4414     1.9769     2.4975 C.3     
  29 C29            0.0061     1.4474     2.5084 C.3     
  30 N30           -6.8356    -7.2589     0.2539 N.2     
  31 C31           -5.8069    -8.3200     1.9185 C.2     
  32 C32           -7.1422    -8.5074     2.0327 C.2     
  33 C33           -7.7639    -7.8319     0.9769 C.2     
  34 C34           -3.0206     2.2092     1.8901 C.2     
  35 O35           -2.7021     3.2576     2.3994 O.2     
  36 C36           -4.4557     1.7522     1.9408 C.3     
  37 C37           -5.2954     2.7901     2.6880 C.3     
  38 H38           -0.5450     1.8219    -0.8730 H       
  39 H39           -1.1271    -3.4628    -2.0119 H       
  40 H40            1.8319    -2.4183     3.0348 H       
  41 H41            2.4681    -4.5675     4.0503 H       
  42 H42            1.8589    -6.6819     2.9534 H       
  43 H43            0.6110    -6.6755     0.8406 H       
  44 H44           -0.5834    -5.6910    -2.1700 H       
  45 H45            0.2192    -6.5504    -0.8337 H       
  46 H46           -2.9749    -5.2875    -2.1294 H       
  47 H47           -5.1678    -6.0390    -1.3023 H       
  48 H48           -3.2399    -8.1031     1.9075 H       
  49 H49           -1.0512    -7.3520     1.0691 H       
  50 H50           -0.7487     3.0441     1.2749 H       
  51 H51            1.9278     1.6388    -0.8976 H       
  52 H52            1.4028     3.0802     0.0052 H       
  53 H53            2.1724     0.3936     1.2327 H       
  54 H54            3.1802     1.8608     1.2310 H       
  55 H55            1.9686     1.6159     3.3806 H       
  56 H56            1.4267     3.0668     2.5035 H       
  57 H57           -0.5041     1.7989     3.4052 H       
  58 H58            0.0208     0.3575     2.5024 H       
  59 H59           -5.0493    -8.7158     2.5786 H       
  60 H60           -7.6399    -9.0799     2.8015 H       
  61 H61           -8.8269    -7.7905     0.7906 H       
  62 H62           -4.8370     1.6387     0.9260 H       
  63 H63           -4.5142     0.7955     2.4599 H       
  64 H64           -5.2369     3.7468     2.1689 H       
  65 H65           -6.3334     2.4596     2.7247 H       
  66 H66           -4.9142     2.9035     3.7029 H       
@<TRIPOS>BOND
   1    1    2 1
   2    1   26 1
   3    1   23 1
   4    1   38 1
   5    2    3 1
   6    2    6 am
   7    3    4 2
   8    4    5 1
   9    4    8 1
  10    5    6 1
  11    5   11 2
  12    6    7 2
  13    8    9 ar
  14    8   12 ar
  15    9   10 1
  16    9   15 ar
  17   10   11 1
  18   10   16 1
  19   11   39 1
  20   12   13 ar
  21   12   40 1
  22   13   14 ar
  23   13   41 1
  24   14   15 ar
  25   14   42 1
  26   15   43 1
  27   16   17 1
  28   16   44 1
  29   16   45 1
  30   17   18 ar
  31   17   22 ar
  32   18   19 ar
  33   18   46 1
  34   19   20 ar
  35   19   47 1
  36   20   21 ar
  37   20   25 1
  38   21   22 ar
  39   21   48 1
  40   22   49 1
  41   23   24 1
  42   23   29 1
  43   23   50 1
  44   24   34 1
  45   25   31 1
  46   25   30 1
  47   26   27 1
  48   26   51 1
  49   26   52 1
  50   27   28 1
  51   27   53 1
  52   27   54 1
  53   28   29 1
  54   28   55 1
  55   28   56 1
  56   29   57 1
  57   29   58 1
  58   30   33 2
  59   31   32 2
  60   31   59 1
  61   32   33 1
  62   32   60 1
  63   33   61 1
  64   34   35 2
  65   34   36 1
  66   36   37 1
  67   36   62 1
  68   36   63 1
  69   37   64 1
  70   37   65 1
  71   37   66 1

#	End of record

