#	Name: ASD01916541
#	Creating user name:	WinNT
#	Creation time:	15. 06. 2019 20:07

#	Modifying user name:	WinNT
#	Modification time:	15. 06. 2019 20:07

#	Program:	/corina/corina34_cracker 3.40 0067  02.08.2006

@<TRIPOS>MOLECULE
ASD01916541
  17   16    0    0    0
SMALL
NO_CHARGES


@<TRIPOS>ATOM
   1 C1            -0.0184     1.5028     0.0103 C.2     
   2 C2             0.0021    -0.0041     0.0020 C.3     
   3 C3             1.3103    -0.4929    -0.6228 C.3     
   4 C4            -0.1030    -0.5234     1.4373 C.3     
   5 N5             1.0915     2.1639     0.0033 N.2     
   6 N6            -1.2203     2.1751     0.0197 N.pl3   
   7 O7             1.0723     3.5797     0.0110 O.3     
   8 H8            -0.8403    -0.3757    -0.5814 H       
   9 H9             2.1527    -0.1214    -0.0393 H       
  10 H10            1.3251    -1.5828    -0.6288 H       
  11 H11            1.3852    -0.1229    -1.6453 H       
  12 H12           -1.0350    -0.1752     1.8824 H       
  13 H13           -0.0882    -1.6133     1.4313 H       
  14 H14            0.7394    -0.1519     2.0208 H       
  15 H15           -2.0537     1.6787     0.0209 H       
  16 H16           -1.2334     3.1450     0.0250 H       
  17 H17            1.9502     3.9850     0.0048 H       
@<TRIPOS>BOND
   1    1    2 1
   2    1    5 2
   3    1    6 1
   4    2    3 1
   5    2    4 1
   6    2    8 1
   7    3    9 1
   8    3   10 1
   9    3   11 1
  10    4   12 1
  11    4   13 1
  12    4   14 1
  13    5    7 1
  14    6   15 1
  15    6   16 1
  16    7   17 1

#	End of record

