#	Name: ASD04598003
#	Creating user name:	WinNT
#	Creation time:	15. 06. 2019 20:52

#	Modifying user name:	WinNT
#	Modification time:	15. 06. 2019 20:52

#	Program:	/corina/corina34_cracker 3.40 0067  02.08.2006

@<TRIPOS>MOLECULE
ASD04598003
  56   58    0    0    0
SMALL
NO_CHARGES


@<TRIPOS>ATOM
   1 N1             0.6940     1.4873    -2.0729 N.pl3   
   2 C2             0.4063     0.1840    -1.9192 C.2     
   3 C3             1.5343    -0.4676    -1.4543 C.2     
   4 C4             2.5522     0.5012    -1.3231 C.2     
   5 C5             2.0073     1.7086    -1.7131 C.2     
   6 C6             1.6513    -1.9056    -1.1518 C.2     
   7 O7             2.0025    -2.6828    -2.0187 O.2     
   8 N8             1.3691    -2.3591     0.0856 N.am    
   9 C9             3.9626     0.2637    -0.8483 C.3     
  10 C10           -0.9253    -0.4611    -2.2053 C.3     
  11 C11            2.6767     2.9515    -1.7390 C.2     
  12 N12            0.4072     5.5077    -0.5667 N.am    
  13 C13            0.6670     4.2067    -0.7812 C.2     
  14 C14            2.0116     4.1018    -1.3638 C.2     
  15 C15            2.4992     5.4957    -1.4611 C.ar    
  16 C16            3.6837     6.0613    -1.9223 C.ar    
  17 C17            3.8480     7.4330    -1.8837 C.ar    
  18 C18            2.8354     8.2399    -1.3865 C.ar    
  19 C19            1.6577     7.6866    -0.9271 C.ar    
  20 C20            1.4744     6.3086    -0.9587 C.ar    
  21 O21           -0.0812     3.2774    -0.5353 O.2     
  22 F22            4.9959     7.9882    -2.3302 F       
  23 C23            1.4854    -3.7882     0.3863 C.3     
  24 C24            1.1110    -4.0337     1.8493 C.3     
  25 N25            1.2276    -5.4667     2.1508 N.3     
  26 C26            1.1083    -5.7124     3.5941 C.3     
  27 C27            2.4104    -5.3099     4.2894 C.3     
  28 C28            0.2333    -6.2452     1.4002 C.3     
  29 C29            0.6224    -7.7247     1.4212 C.3     
  30 H30            0.0769     2.1650    -2.3906 H       
  31 H31            1.0890    -1.7392     0.7771 H       
  32 H32            4.5982     0.0269    -1.7015 H       
  33 H33            4.3359     1.1612    -0.3551 H       
  34 H34            3.9738    -0.5688    -0.1448 H       
  35 H35           -0.9514    -0.7962    -3.2422 H       
  36 H36           -1.0644    -1.3160    -1.5435 H       
  37 H37           -1.7231     0.2623    -2.0370 H       
  38 H38            3.7090     3.0024    -2.0524 H       
  39 H39           -0.4206     5.8453    -0.1903 H       
  40 H40            4.4713     5.4313    -2.3085 H       
  41 H41            2.9701     9.3111    -1.3583 H       
  42 H42            0.8765     8.3253    -0.5422 H       
  43 H43            0.8126    -4.3514    -0.2604 H       
  44 H44            2.5115    -4.1133     0.2143 H       
  45 H45            1.7838    -3.4704     2.4960 H       
  46 H46            0.0849    -3.7085     2.0212 H       
  47 H47            0.2844    -5.1228     3.9962 H       
  48 H48            0.9159    -6.7712     3.7678 H       
  49 H49            2.3588    -5.5827     5.3434 H       
  50 H50            3.2475    -5.8272     3.8207 H       
  51 H51            2.5524    -4.2329     4.1994 H       
  52 H52           -0.7474    -6.1208     1.8593 H       
  53 H53            0.1991    -5.8931     0.3692 H       
  54 H54            1.5942    -7.8517     0.9441 H       
  55 H55            0.6762    -8.0716     2.4532 H       
  56 H56           -0.1260    -8.3049     0.8814 H       
@<TRIPOS>BOND
   1    1    2 1
   2    1    5 1
   3    1   30 1
   4    2    3 2
   5    2   10 1
   6    3    4 1
   7    3    6 1
   8    4    5 2
   9    4    9 1
  10    5   11 1
  11    6    7 2
  12    6    8 am
  13    8   23 1
  14    8   31 1
  15    9   32 1
  16    9   33 1
  17    9   34 1
  18   10   35 1
  19   10   36 1
  20   10   37 1
  21   11   14 2
  22   11   38 1
  23   12   13 am
  24   12   20 1
  25   12   39 1
  26   13   14 1
  27   13   21 2
  28   14   15 1
  29   15   16 ar
  30   15   20 ar
  31   16   17 ar
  32   16   40 1
  33   17   18 ar
  34   17   22 1
  35   18   19 ar
  36   18   41 1
  37   19   20 ar
  38   19   42 1
  39   23   24 1
  40   23   43 1
  41   23   44 1
  42   24   25 1
  43   24   45 1
  44   24   46 1
  45   25   26 1
  46   25   28 1
  47   26   27 1
  48   26   47 1
  49   26   48 1
  50   27   49 1
  51   27   50 1
  52   27   51 1
  53   28   29 1
  54   28   52 1
  55   28   53 1
  56   29   54 1
  57   29   55 1
  58   29   56 1

#	End of record

