#	Name: ASD03330613
#	Creating user name:	WinNT
#	Creation time:	15. 06. 2019 20:37

#	Modifying user name:	WinNT
#	Modification time:	15. 06. 2019 20:37

#	Program:	/corina/corina34_cracker 3.40 0067  02.08.2006

@<TRIPOS>MOLECULE
ASD03330613
  59   61    0    0    0
SMALL
NO_CHARGES


@<TRIPOS>ATOM
   1 C1            -0.2232     1.0074     0.8527 C.2     
   2 N2            -0.1965    -0.3289     1.0617 N.pl3   
   3 C3             1.0700     1.4379     0.8370 C.2     
   4 N4             1.8640     0.3616     1.0181 N.2     
   5 C5             1.1119    -0.7056     1.1484 C.2     
   6 C6             1.6011    -2.0870     1.3543 C.ar    
   7 C7             1.5206     2.8294     0.6543 C.2     
   8 O8             0.7044     3.7174     0.4988 O.2     
   9 C9             3.2851     4.5005     0.4782 C.3     
  10 N10            2.8372     3.1175     0.6597 N.am    
  11 C11            3.3716     4.8166    -1.0163 C.3     
  12 C12            1.9709     4.7678    -1.6299 C.3     
  13 C13            3.9642     6.2140    -1.2086 C.3     
  14 C14            4.2663     3.7840    -1.7050 C.3     
  15 C15            4.6429     4.6756     1.1081 C.2     
  16 N16            5.1390     5.9129     1.3071 N.am    
  17 O17            5.2892     3.7032     1.4360 O.2     
  18 C18            6.4881     6.0822     1.8525 C.3     
  19 C19           -1.3731    -1.1940     1.1845 C.3     
  20 C20           -2.3523    -0.8753     0.0505 C.3     
  21 C21           -3.2824     0.2565     0.4759 C.3     
  22 N22           -2.5893     1.2052     1.3502 N.3     
  23 C23           -1.4610     1.8439     0.6567 C.3     
  24 C24           -3.5203     2.2112     1.8784 C.3     
  25 C25            2.8475    -2.4893     0.8620 C.ar    
  26 C26            3.2646    -3.7867     1.0772 C.ar    
  27 N27            2.5060    -4.6418     1.7357 N.ar    
  28 C28            1.3249    -4.3038     2.2162 C.ar    
  29 C29            0.8325    -3.0254     2.0518 C.ar    
  30 H30            2.5746     5.1777     0.9522 H       
  31 H31            3.4882     2.4092     0.7838 H       
  32 H32            1.3335     5.5034    -1.1392 H       
  33 H33            2.0325     4.9929    -2.6946 H       
  34 H34            1.5487     3.7722    -1.4929 H       
  35 H35            4.9336     6.2689    -0.7132 H       
  36 H36            4.0884     6.4127    -2.2731 H       
  37 H37            3.2928     6.9560    -0.7765 H       
  38 H38            3.8442     2.7885    -1.5680 H       
  39 H39            4.3280     4.0092    -2.7697 H       
  40 H40            5.2642     3.8188    -1.2679 H       
  41 H41            4.6027     6.6912     1.0892 H       
  42 H42            6.7130     7.1449     1.9421 H       
  43 H43            6.5438     5.6148     2.8357 H       
  44 H44            7.2112     5.6127     1.1856 H       
  45 H45           -1.0662    -2.2378     1.1182 H       
  46 H46           -1.8574    -1.0161     2.1446 H       
  47 H47           -1.7947    -0.5726    -0.8358 H       
  48 H48           -2.9424    -1.7626    -0.1790 H       
  49 H49           -3.6372     0.7809    -0.4114 H       
  50 H50           -4.1362    -0.1627     1.0082 H       
  51 H51           -1.2968     2.8397     1.0685 H       
  52 H52           -1.6839     1.9209    -0.4075 H       
  53 H53           -4.3037     1.7157     2.4518 H       
  54 H54           -2.9795     2.9030     2.5243 H       
  55 H55           -3.9683     2.7616     1.0510 H       
  56 H56            3.4734    -1.7947     0.3215 H       
  57 H57            4.2251    -4.1067     0.7011 H       
  58 H58            0.7372    -5.0365     2.7493 H       
  59 H59           -0.1351    -2.7555     2.4482 H       
@<TRIPOS>BOND
   1    1    2 1
   2    1    3 2
   3    1   23 1
   4    2   19 1
   5    2    5 1
   6    3    4 1
   7    3    7 1
   8    4    5 2
   9    5    6 1
  10    6   25 ar
  11    6   29 ar
  12    7    8 2
  13    7   10 am
  14    9   10 1
  15    9   11 1
  16    9   15 1
  17    9   30 1
  18   10   31 1
  19   11   12 1
  20   11   13 1
  21   11   14 1
  22   12   32 1
  23   12   33 1
  24   12   34 1
  25   13   35 1
  26   13   36 1
  27   13   37 1
  28   14   38 1
  29   14   39 1
  30   14   40 1
  31   15   16 am
  32   15   17 2
  33   16   18 1
  34   16   41 1
  35   18   42 1
  36   18   43 1
  37   18   44 1
  38   19   20 1
  39   19   45 1
  40   19   46 1
  41   20   21 1
  42   20   47 1
  43   20   48 1
  44   21   22 1
  45   21   49 1
  46   21   50 1
  47   22   23 1
  48   22   24 1
  49   23   51 1
  50   23   52 1
  51   24   53 1
  52   24   54 1
  53   24   55 1
  54   25   26 ar
  55   25   56 1
  56   26   27 ar
  57   26   57 1
  58   27   28 ar
  59   28   29 ar
  60   28   58 1
  61   29   59 1

#	End of record

