#	Name: ASD01811611
#	Creating user name:	WinNT
#	Creation time:	15. 06. 2019 19:27

#	Modifying user name:	WinNT
#	Modification time:	15. 06. 2019 19:27

#	Program:	/corina/corina34_cracker 3.40 0067  02.08.2006

@<TRIPOS>MOLECULE
ASD01811611
  65   70    0    0    0
SMALL
NO_CHARGES


@<TRIPOS>ATOM
   1 C1            -0.0166     1.3785     0.0159 C.ar    
   2 C2            -0.0010     0.0075     0.1942 C.ar    
   3 C3             1.1963    -0.6626     0.3397 C.ar    
   4 C4             2.3994     0.0385     0.3079 C.ar    
   5 C5             2.3709     1.4171     0.1265 C.ar    
   6 C6             1.1745     2.0826    -0.0175 C.ar    
   7 N7             3.7172    -0.4048     0.4311 N.am    
   8 C8             4.6034     0.6031     0.3421 C.2     
   9 C9             3.8082     1.8700     0.1354 C.3     
  10 C10            4.1756     2.5156    -1.1979 C.3     
  11 C11            5.6342     2.9798    -1.1495 C.3     
  12 N12            5.8094     3.9295    -0.0436 N.3     
  13 C13            5.5195     3.3002     1.2512 C.3     
  14 C14            4.0572     2.8461     1.2823 C.3     
  15 C15            7.1590     4.5095    -0.0565 C.3     
  16 C16            7.3694     5.3260    -1.3437 C.3     
  17 C17            7.6539     6.7769    -0.9035 C.3     
  18 C18            8.1919     6.6368     0.5421 C.3     
  19 C19            7.3229     5.4927     1.1209 C.3     
  20 O20            5.8107     0.5119     0.4144 O.2     
  21 C21            4.0918    -1.8063     0.6349 C.3     
  22 C22            4.2899    -2.4728    -0.7021 C.ar    
  23 C23            5.4760    -2.2916    -1.3951 C.ar    
  24 C24            5.6616    -2.9017    -2.6216 C.ar    
  25 C25            4.6538    -3.6989    -3.1591 C.ar    
  26 C26            3.4639    -3.8770    -2.4573 C.ar    
  27 C27            3.2898    -3.2678    -1.2306 C.ar    
  28 F28            6.4518    -1.5175    -0.8719 F       
  29 C29            4.8471    -4.3564    -4.4762 C.2     
  30 C30            5.9917    -4.2653    -5.2919 C.2     
  31 N31            5.7830    -4.9803    -6.3655 N.2     
  32 N32            4.5076    -5.5514    -6.2787 N.pl3   
  33 C33            3.9506    -5.1634    -5.1138 C.2     
  34 C34            3.8876    -6.4245    -7.2784 C.3     
  35 H35           -0.9560     1.8983    -0.1014 H       
  36 H36           -0.9307    -0.5416     0.2200 H       
  37 H37            1.2006    -1.7336     0.4790 H       
  38 H38            1.1653     3.1537    -0.1562 H       
  39 H39            4.0514     1.7889    -2.0007 H       
  40 H40            3.5268     3.3727    -1.3783 H       
  41 H41            6.2846     2.1187    -0.9955 H       
  42 H42            5.8921     3.4661    -2.0903 H       
  43 H43            6.1709     2.4372     1.3897 H       
  44 H44            5.6938     4.0191     2.0517 H       
  45 H45            3.4048     3.7122     1.1712 H       
  46 H46            3.8495     2.3527     2.2317 H       
  47 H47            7.9058     3.7183     0.0100 H       
  48 H48            8.2189     4.9316    -1.9013 H       
  49 H49            6.4702     5.2919    -1.9587 H       
  50 H50            8.4065     7.2306    -1.5484 H       
  51 H51            6.7365     7.3655    -0.9138 H       
  52 H52            9.2454     6.3569     0.5368 H       
  53 H53            8.0391     7.5592     1.1023 H       
  54 H54            6.3521     5.8739     1.4375 H       
  55 H55            7.8340     5.0092     1.9534 H       
  56 H56            5.0189    -1.8552     1.2062 H       
  57 H57            3.3003    -2.3181     1.1823 H       
  58 H58            6.5858    -2.7602    -3.1621 H       
  59 H59            2.6797    -4.4940    -2.8705 H       
  60 H60            2.3673    -3.4063    -0.6863 H       
  61 H61            6.8859    -3.7021    -5.0691 H       
  62 H62            2.9698    -5.4366    -4.7536 H       
  63 H63            4.1335    -7.4629    -7.0565 H       
  64 H64            2.8057    -6.2940    -7.2538 H       
  65 H65            4.2622    -6.1661    -8.2689 H       
@<TRIPOS>BOND
   1    1    2 ar
   2    1    6 ar
   3    1   35 1
   4    2    3 ar
   5    2   36 1
   6    3    4 ar
   7    3   37 1
   8    4    5 ar
   9    4    7 1
  10    5    6 ar
  11    5    9 1
  12    6   38 1
  13    7    8 am
  14    7   21 1
  15    8    9 1
  16    8   20 2
  17    9   10 1
  18    9   14 1
  19   10   11 1
  20   10   39 1
  21   10   40 1
  22   11   12 1
  23   11   41 1
  24   11   42 1
  25   12   13 1
  26   12   15 1
  27   13   14 1
  28   13   43 1
  29   13   44 1
  30   14   45 1
  31   14   46 1
  32   15   16 1
  33   15   19 1
  34   15   47 1
  35   16   17 1
  36   16   48 1
  37   16   49 1
  38   17   18 1
  39   17   50 1
  40   17   51 1
  41   18   19 1
  42   18   52 1
  43   18   53 1
  44   19   54 1
  45   19   55 1
  46   21   22 1
  47   21   56 1
  48   21   57 1
  49   22   23 ar
  50   22   27 ar
  51   23   24 ar
  52   23   28 1
  53   24   25 ar
  54   24   58 1
  55   25   26 ar
  56   25   29 1
  57   26   27 ar
  58   26   59 1
  59   27   60 1
  60   29   30 1
  61   29   33 2
  62   30   31 2
  63   30   61 1
  64   31   32 1
  65   32   33 1
  66   32   34 1
  67   33   62 1
  68   34   63 1
  69   34   64 1
  70   34   65 1

#	End of record

