#	Name: ASD01890308
#	Creating user name:	WinNT
#	Creation time:	15. 06. 2019 19:50

#	Modifying user name:	WinNT
#	Modification time:	15. 06. 2019 19:50

#	Program:	/corina/corina34_cracker 3.40 0067  02.08.2006

@<TRIPOS>MOLECULE
ASD01890308
  34   35    0    0    0
SMALL
NO_CHARGES


@<TRIPOS>ATOM
   1 C1            -0.0294     1.4560    -0.0308 C.2     
   2 C2            -0.0042    -0.0085    -0.0466 C.2     
   3 C3             1.1726    -0.6614    -0.1144 C.2     
   4 C4             2.4478     0.1065    -0.3493 C.3     
   5 C5             3.0794     0.4701     0.9960 C.3     
   6 O6             1.0114     2.0813     0.0329 O.2     
   7 O7            -1.2070     2.1109    -0.0924 O.3     
   8 C8             1.2125    -2.1262     0.0411 C.ar    
   9 C9             0.0274    -2.8328     0.2587 C.ar    
  10 C10            0.0822    -4.2086     0.4027 C.ar    
  11 C11            1.3181    -4.8341     0.3249 C.ar    
  12 C12            2.4539    -4.0718     0.1071 C.ar    
  13 N13            2.3756    -2.7660    -0.0320 N.ar    
  14 C14            4.3546     1.2380     0.7611 C.ar    
  15 C15            4.3232     2.6167     0.6651 C.ar    
  16 C16            5.4925     3.3215     0.4496 C.ar    
  17 C17            6.6945     2.6469     0.3301 C.ar    
  18 C18            6.7252     1.2671     0.4262 C.ar    
  19 C19            5.5561     0.5638     0.6473 C.ar    
  20 Cl20           8.1634     3.5314     0.0589 Cl      
  21 H21           -0.9288    -0.5650    -0.0039 H       
  22 H22            3.1419    -0.5084    -0.9222 H       
  23 H23            2.2261     1.0178    -0.9048 H       
  24 H24            2.3853     1.0851     1.5688 H       
  25 H25            3.3010    -0.4411     1.5515 H       
  26 H26           -1.1731     3.0772    -0.0790 H       
  27 H27           -0.9178    -2.3134     0.3141 H       
  28 H28           -0.8170    -4.7821     0.5722 H       
  29 H29            1.3940    -5.9059     0.4336 H       
  30 H30            3.4170    -4.5568     0.0466 H       
  31 H31            3.3849     3.1432     0.7581 H       
  32 H32            5.4678     4.3986     0.3743 H       
  33 H33            7.6632     0.7399     0.3330 H       
  34 H34            5.5806    -0.5130     0.7268 H       
@<TRIPOS>BOND
   1    1    2 1
   2    1    6 2
   3    1    7 1
   4    2    3 2
   5    2   21 1
   6    3    4 1
   7    3    8 1
   8    4    5 1
   9    4   22 1
  10    4   23 1
  11    5   14 1
  12    5   24 1
  13    5   25 1
  14    7   26 1
  15    8    9 ar
  16    8   13 ar
  17    9   10 ar
  18    9   27 1
  19   10   11 ar
  20   10   28 1
  21   11   12 ar
  22   11   29 1
  23   12   13 ar
  24   12   30 1
  25   14   15 ar
  26   14   19 ar
  27   15   16 ar
  28   15   31 1
  29   16   17 ar
  30   16   32 1
  31   17   18 ar
  32   17   20 1
  33   18   19 ar
  34   18   33 1
  35   19   34 1

#	End of record

