#	Name: ASD04590087
#	Creating user name:	WinNT
#	Creation time:	15. 06. 2019 20:50

#	Modifying user name:	WinNT
#	Modification time:	15. 06. 2019 20:50

#	Program:	/corina/corina34_cracker 3.40 0067  02.08.2006

@<TRIPOS>MOLECULE
ASD04590087
  37   38    0    0    0
SMALL
NO_CHARGES


@<TRIPOS>ATOM
   1 N1            -0.0178     1.4648     0.0101 N.3     
   2 N2            -0.7194    -2.4873    -1.2832 N.3     
   3 C3            -1.4077    -2.0639    -0.0571 C.3     
   4 C4            -1.4339    -0.5354     0.0129 C.3     
   5 C5             0.0021    -0.0041     0.0020 C.3     
   6 C6             0.7116    -0.4992    -1.2613 C.3     
   7 C7             0.6756    -2.0288    -1.2943 C.3     
   8 N8             0.5484    -6.4701    -1.8434 N.3     
   9 C9            -0.2068    -5.8585    -2.9444 C.3     
  10 C10           -0.1792    -4.3353    -2.7994 C.3     
  11 C11           -0.7961    -3.9444    -1.4536 C.3     
  12 C12           -0.0212    -4.6328    -0.3267 C.3     
  13 C13           -0.0533    -6.1474    -0.5433 C.3     
  14 C14            0.6606    -7.9234    -2.0255 C.3     
  15 H15            0.9191     1.8392     0.0032 H       
  16 H16           -0.5563     1.8234    -0.7642 H       
  17 H17           -2.4290    -2.4447    -0.0640 H       
  18 H18           -0.8791    -2.4582     0.8108 H       
  19 H19           -1.9744    -0.1409    -0.8476 H       
  20 H20           -1.9311    -0.2216     0.9307 H       
  21 H21            0.5311    -0.3660     0.8836 H       
  22 H22            0.2049    -0.1042    -2.1418 H       
  23 H23            1.7473    -0.1597    -1.2538 H       
  24 H24            1.1945    -2.4233    -0.4207 H       
  25 H25            1.1675    -2.3842    -2.1998 H       
  26 H26            0.2447    -6.1411    -3.8954 H       
  27 H27           -1.2390    -6.2076    -2.9147 H       
  28 H28            0.8518    -3.9842    -2.8429 H       
  29 H29           -0.7529    -3.8823    -3.6080 H       
  30 H30           -1.8390    -4.2600    -1.4255 H       
  31 H31            1.0123    -4.2864    -0.3312 H       
  32 H32           -0.4819    -4.3924     0.6315 H       
  33 H33           -1.0862    -6.4951    -0.5249 H       
  34 H34            0.5097    -6.6398     0.2496 H       
  35 H35            1.1767    -8.1335    -2.9623 H       
  36 H36            1.2243    -8.3510    -1.1963 H       
  37 H37           -0.3360    -8.3642    -2.0529 H       
@<TRIPOS>BOND
   1    1    5 1
   2    1   15 1
   3    1   16 1
   4    2    3 1
   5    2    7 1
   6    2   11 1
   7    3    4 1
   8    3   17 1
   9    3   18 1
  10    4    5 1
  11    4   19 1
  12    4   20 1
  13    5    6 1
  14    5   21 1
  15    6    7 1
  16    6   22 1
  17    6   23 1
  18    7   24 1
  19    7   25 1
  20    8    9 1
  21    8   13 1
  22    8   14 1
  23    9   10 1
  24    9   26 1
  25    9   27 1
  26   10   11 1
  27   10   28 1
  28   10   29 1
  29   11   12 1
  30   11   30 1
  31   12   13 1
  32   12   31 1
  33   12   32 1
  34   13   33 1
  35   13   34 1
  36   14   35 1
  37   14   36 1
  38   14   37 1

#	End of record

