#	Name: ASD05060106
#	Creating user name:	WinNT
#	Creation time:	15. 06. 2019 20:56

#	Modifying user name:	WinNT
#	Modification time:	15. 06. 2019 20:56

#	Program:	/corina/corina34_cracker 3.40 0067  02.08.2006

@<TRIPOS>MOLECULE
ASD05060106
  62   65    0    0    0
SMALL
NO_CHARGES


@<TRIPOS>ATOM
   1 C1            -0.0168     1.3899     0.0097 C.ar    
   2 C2             0.0021    -0.0041     0.0020 C.ar    
   3 C3             1.1975    -0.6670    -0.0130 C.ar    
   4 C4             2.3932     0.0376    -0.0206 C.ar    
   5 C5             2.3963     1.4154    -0.0128 C.ar    
   6 C6            -1.0905     2.3968     0.0195 C.2     
   7 C7             1.1905     2.1091     0.0020 C.ar    
   8 N8             0.8708     3.4514     0.0123 N.pl3   
   9 C9            -0.4879     3.6103     0.0237 C.2     
  10 C10           -1.2060     4.9352     0.0337 C.3     
  11 O11           -2.2746     4.9050    -0.9145 O.3     
  12 C12           -1.9017     5.3374    -2.2245 C.3     
  13 C13           -1.7627     5.1944     1.4099 C.2     
  14 C14           -0.7934     4.4314    -2.7644 C.3     
  15 C15           -3.1171     5.2640    -3.1510 C.3     
  16 C16           -1.3955     6.7798    -2.1606 C.3     
  17 O17           -0.9306     5.3652     2.4493 O.3     
  18 O18           -2.9580     5.2486     1.5777 O.2     
  19 C19           -2.5495     2.1338     0.0234 C.ar    
  20 C20           -3.1427     1.5022     1.1158 C.ar    
  21 C21           -4.5005     1.2595     1.1164 C.ar    
  22 C22           -5.2761     1.6428     0.0310 C.ar    
  23 C23           -4.6888     2.2718    -1.0581 C.ar    
  24 C24           -3.3325     2.5227    -1.0628 C.ar    
  25 C25            1.8012     4.4978     0.0094 C.ar    
  26 O26           -6.6137     1.4014     0.0345 O.3     
  27 C27           -7.3519     1.8220    -1.1146 C.3     
  28 C28            2.6326     4.6866    -1.0868 C.ar    
  29 C29            3.5489     5.7200    -1.0869 C.ar    
  30 C30            3.6392     6.5660     0.0033 C.ar    
  31 C31            2.8131     6.3803     1.0966 C.ar    
  32 C32            1.8905     5.3526     1.1002 C.ar    
  33 C33            4.6405     7.6922     0.0002 C.3     
  34 H34           -0.9248    -0.5585     0.0083 H       
  35 H35            1.2116    -1.7469    -0.0185 H       
  36 H36            3.3303    -0.4992    -0.0324 H       
  37 H37            3.3318     1.9551    -0.0181 H       
  38 H38           -0.5076     5.7291    -0.2311 H       
  39 H39           -1.1540     3.4038    -2.8099 H       
  40 H40           -0.5089     4.7612    -3.7636 H       
  41 H41            0.0725     4.4837    -2.1043 H       
  42 H42           -3.9067     5.9095    -2.7663 H       
  43 H43           -2.8326     5.5939    -4.1502 H       
  44 H44           -3.4777     4.2364    -3.1965 H       
  45 H45           -0.5297     6.8321    -1.5005 H       
  46 H46           -1.1111     7.1097    -3.1598 H       
  47 H47           -2.1851     7.4253    -1.7759 H       
  48 H48           -1.3344     5.5288     3.3126 H       
  49 H49           -2.5397     1.2031     1.9604 H       
  50 H50           -4.9606     0.7704     1.9623 H       
  51 H51           -5.2951     2.5684    -1.9012 H       
  52 H52           -2.8769     3.0161    -1.9086 H       
  53 H53           -7.2492     2.9002    -1.2377 H       
  54 H54           -6.9653     1.3168    -1.9997 H       
  55 H55           -8.4041     1.5699    -0.9828 H       
  56 H56            2.5630     4.0259    -1.9383 H       
  57 H57            4.1957     5.8674    -1.9390 H       
  58 H58            2.8863     7.0425     1.9467 H       
  59 H59            1.2425     5.2108     1.9525 H       
  60 H60            4.1817     8.5851    -0.4247 H       
  61 H61            4.9587     7.8984     1.0221 H       
  62 H62            5.5053     7.4079    -0.5992 H       
@<TRIPOS>BOND
   1    1    2 ar
   2    1    7 ar
   3    1    6 1
   4    2    3 ar
   5    2   34 1
   6    3    4 ar
   7    3   35 1
   8    4    5 ar
   9    4   36 1
  10    5    7 ar
  11    5   37 1
  12    6    9 2
  13    6   19 1
  14    7    8 1
  15    8    9 1
  16    8   25 1
  17    9   10 1
  18   10   11 1
  19   10   13 1
  20   10   38 1
  21   11   12 1
  22   12   14 1
  23   12   15 1
  24   12   16 1
  25   13   17 1
  26   13   18 2
  27   14   39 1
  28   14   40 1
  29   14   41 1
  30   15   42 1
  31   15   43 1
  32   15   44 1
  33   16   45 1
  34   16   46 1
  35   16   47 1
  36   17   48 1
  37   19   20 ar
  38   19   24 ar
  39   20   21 ar
  40   20   49 1
  41   21   22 ar
  42   21   50 1
  43   22   23 ar
  44   22   26 1
  45   23   24 ar
  46   23   51 1
  47   24   52 1
  48   25   28 ar
  49   25   32 ar
  50   26   27 1
  51   27   53 1
  52   27   54 1
  53   27   55 1
  54   28   29 ar
  55   28   56 1
  56   29   30 ar
  57   29   57 1
  58   30   31 ar
  59   30   33 1
  60   31   32 ar
  61   31   58 1
  62   32   59 1
  63   33   60 1
  64   33   61 1
  65   33   62 1

#	End of record

