#	Name: ASD01884982
#	Creating user name:	WinNT
#	Creation time:	15. 06. 2019 19:49

#	Modifying user name:	WinNT
#	Modification time:	15. 06. 2019 19:49

#	Program:	/corina/corina34_cracker 3.40 0067  02.08.2006

@<TRIPOS>MOLECULE
ASD01884982
  47   50    0    0    0
SMALL
NO_CHARGES


@<TRIPOS>ATOM
   1 C1            -0.4406     1.2698     0.2467 C.3     
   2 C2            -0.1584    -0.2326     0.1822 C.3     
   3 H3            -1.0921    -0.7833     0.2963 H       
   4 C4             0.4741    -0.5751    -1.1656 C.3     
   5 N5             1.0420    -1.9187    -1.1935 N.am    
   6 C6             1.7235    -2.4206    -0.1352 C.2     
   7 O7             2.3646    -3.4516    -0.2151 O.2     
   8 C8             1.6461    -1.6514     1.1132 C.2     
   9 C9             2.3402    -1.7611     2.2988 C.2     
  10 C10            1.8267    -0.7254     3.1104 C.2     
  11 N11            0.9097    -0.0927     2.4202 N.2     
  12 N12            0.7652    -0.6046     1.2614 N.pl3   
  13 C13            3.3917    -2.7471     2.6453 C.ar    
  14 C14            3.1911    -4.1161     2.4318 C.ar    
  15 C15            4.1922    -5.0023     2.7668 C.ar    
  16 N16            5.3304    -4.5781     3.2832 N.ar    
  17 C17            5.5641    -3.2928     3.5026 C.ar    
  18 N18            6.7803    -2.8983     4.0489 N.pl3   
  19 C19            7.0469    -1.4790     4.2949 C.3     
  20 H20            8.0431    -1.3652     4.7224 H       
  21 H21            6.9902    -0.9304     3.3547 H       
  22 H22            6.3058    -1.0853     4.9905 H       
  23 C23            4.6095    -2.3345     3.1876 C.ar    
  24 C24            0.8792    -2.7061    -2.3374 C.ar    
  25 C25            0.0878    -3.8467    -2.2904 C.ar    
  26 C26           -0.0713    -4.6220    -3.4222 C.ar    
  27 C27            0.5565    -4.2641    -4.6012 C.ar    
  28 C28            1.3454    -3.1294    -4.6513 C.ar    
  29 C29            1.5037    -2.3464    -3.5247 C.ar    
  30 C30            0.3809    -5.1127    -5.8341 C.3     
  31 F31           -0.7263    -4.6589    -6.5588 F       
  32 F32            1.5280    -5.0222    -6.6298 F       
  33 F33            0.1781    -6.4449    -5.4582 F       
  34 H34            0.4933     1.8201     0.1325 H       
  35 H35           -1.1253     1.5457    -0.5553 H       
  36 H36           -0.8908     1.5139     1.2089 H       
  37 H37           -0.2874    -0.4984    -1.9417 H       
  38 H38            1.2639     0.1456    -1.3774 H       
  39 H39            2.1344    -0.4962     4.1200 H       
  40 H40            2.2632    -4.4734     2.0101 H       
  41 H41            4.0430    -6.0595     2.6046 H       
  42 H42            7.4523    -3.5630     4.2671 H       
  43 H43            4.8050    -1.2870     3.3631 H       
  44 H44           -0.4022    -4.1271    -1.3697 H       
  45 H45           -0.6865    -5.5089    -3.3863 H       
  46 H46            1.8349    -2.8531    -5.5734 H       
  47 H47            2.1164    -1.4579    -3.5657 H       
@<TRIPOS>BOND
   1    1    2 1
   2    1   34 1
   3    1   35 1
   4    1   36 1
   5    2    3 1
   6    2   12 1
   7    2    4 1
   8    4    5 1
   9    4   37 1
  10    4   38 1
  11    5    6 am
  12    5   24 1
  13    6    7 2
  14    6    8 1
  15    8   12 1
  16    8    9 2
  17    9   10 1
  18    9   13 1
  19   10   11 2
  20   10   39 1
  21   11   12 1
  22   13   23 ar
  23   13   14 ar
  24   14   15 ar
  25   14   40 1
  26   15   16 ar
  27   15   41 1
  28   16   17 ar
  29   17   18 1
  30   17   23 ar
  31   18   19 1
  32   18   42 1
  33   19   20 1
  34   19   21 1
  35   19   22 1
  36   23   43 1
  37   24   29 ar
  38   24   25 ar
  39   25   26 ar
  40   25   44 1
  41   26   27 ar
  42   26   45 1
  43   27   28 ar
  44   27   30 1
  45   28   29 ar
  46   28   46 1
  47   29   47 1
  48   30   31 1
  49   30   32 1
  50   30   33 1

#	End of record

