#	Name: ASD02030244
#	Creating user name:	WinNT
#	Creation time:	15. 06. 2019 20:14

#	Modifying user name:	WinNT
#	Modification time:	15. 06. 2019 20:14

#	Program:	/corina/corina34_cracker 3.40 0067  02.08.2006

@<TRIPOS>MOLECULE
ASD02030244
  58   62    0    0    0
SMALL
NO_CHARGES


@<TRIPOS>ATOM
   1 N1            -0.9834     2.0987    -1.3482 N.am    
   2 C2            -0.9331     0.6688    -1.6841 C.3     
   3 C3            -1.1004    -0.1438    -0.3942 C.3     
   4 N4            -2.2662     0.3712     0.3375 N.am    
   5 C5            -2.3165     1.8011     0.6735 C.3     
   6 C6            -2.1466     2.6127    -0.6116 C.3     
   7 C7             0.0218     2.9227    -1.7044 C.2     
   8 C8             1.2365     2.3736    -2.3435 C.2     
   9 N9             2.3325     3.0442    -2.6261 N.2     
  10 N10            1.4181     1.0986    -2.7335 N.2     
  11 C11            2.6177     1.0170    -3.2501 C.2     
  12 N12            3.1777     2.2419    -3.1760 N.pl3   
  13 C13            4.4612     2.5842    -3.6224 C.ar    
  14 O14           -0.0704     4.1175    -1.5001 O.2     
  15 C15           -3.2714    -0.4529     0.6937 C.2     
  16 C16           -3.2103    -1.8856     0.3440 C.ar    
  17 O17           -4.2286    -0.0161     1.3031 O.2     
  18 C18            4.9202     3.8874    -3.4869 C.ar    
  19 C19            6.1859     4.2218    -3.9280 C.ar    
  20 C20            6.9953     3.2602    -4.5040 C.ar    
  21 C21            6.5407     1.9612    -4.6408 C.ar    
  22 C22            5.2787     1.6193    -4.1962 C.ar    
  23 C23           -3.6651     2.1303     1.3166 C.3     
  24 C24           -1.9777    -2.5397     0.2830 C.ar    
  25 C25           -1.9239    -3.8775    -0.0454 C.ar    
  26 C26           -3.0931    -4.5798    -0.3167 C.ar    
  27 C27           -4.3250    -3.9334    -0.2544 C.ar    
  28 C28           -4.3856    -2.5927     0.0788 C.ar    
  29 O29           -3.0158    -5.8969    -0.6459 O.3     
  30 C30           -4.2236    -6.6586    -0.5435 C.3     
  31 C31           -5.3552    -5.8565    -1.2003 C.3     
  32 O32           -5.4793    -4.6088    -0.5093 O.3     
  33 Cl33          -0.3908    -4.6884    -0.1211 Cl      
  34 C34            6.6847     5.6363    -3.7817 C.3     
  35 H35           -1.7399     0.4270    -2.3760 H       
  36 H36            0.0277     0.4342    -2.1423 H       
  37 H37           -1.2580    -1.1937    -0.6411 H       
  38 H38           -0.2070    -0.0405     0.2217 H       
  39 H39           -1.5097     2.0429     1.3653 H       
  40 H40           -1.9891     3.6622    -0.3632 H       
  41 H41           -3.0387     2.5103    -1.2295 H       
  42 H42            3.0770     0.1293    -3.6594 H       
  43 H43            4.2883     4.6391    -3.0374 H       
  44 H44            7.9844     3.5240    -4.8480 H       
  45 H45            7.1749     1.2124    -5.0918 H       
  46 H46            4.9242     0.6048    -4.3034 H       
  47 H47           -3.7509     1.6070     2.2689 H       
  48 H48           -3.7347     3.2050     1.4850 H       
  49 H49           -4.4706     1.8135     0.6541 H       
  50 H50           -1.0674    -1.9976     0.4925 H       
  51 H51           -5.3405    -2.0903     0.1257 H       
  52 H52           -4.1018    -7.6116    -1.0584 H       
  53 H53           -4.4591    -6.8347     0.5060 H       
  54 H54           -5.1166    -5.6745    -2.2481 H       
  55 H55           -6.2901    -6.4120    -1.1267 H       
  56 H56            7.1884     5.7464    -2.8213 H       
  57 H57            7.3847     5.8598    -4.5868 H       
  58 H58            5.8419     6.3257    -3.8311 H       
@<TRIPOS>BOND
   1    1    2 1
   2    1    7 am
   3    1    6 1
   4    2    3 1
   5    2   35 1
   6    2   36 1
   7    3    4 1
   8    3   37 1
   9    3   38 1
  10    4    5 1
  11    4   15 am
  12    5    6 1
  13    5   23 1
  14    5   39 1
  15    6   40 1
  16    6   41 1
  17    7    8 1
  18    7   14 2
  19    8    9 2
  20    8   10 1
  21    9   12 1
  22   10   11 2
  23   11   12 1
  24   11   42 1
  25   12   13 1
  26   13   18 ar
  27   13   22 ar
  28   15   16 1
  29   15   17 2
  30   16   24 ar
  31   16   28 ar
  32   18   19 ar
  33   18   43 1
  34   19   20 ar
  35   19   34 1
  36   20   21 ar
  37   20   44 1
  38   21   22 ar
  39   21   45 1
  40   22   46 1
  41   23   47 1
  42   23   48 1
  43   23   49 1
  44   24   25 ar
  45   24   50 1
  46   25   26 ar
  47   25   33 1
  48   26   27 ar
  49   26   29 1
  50   27   28 ar
  51   27   32 1
  52   28   51 1
  53   29   30 1
  54   30   31 1
  55   30   52 1
  56   30   53 1
  57   31   32 1
  58   31   54 1
  59   31   55 1
  60   34   56 1
  61   34   57 1
  62   34   58 1

#	End of record

