#	Name: ASD01180245
#	Creating user name:	WinNT
#	Creation time:	15. 06. 2019 19:07

#	Modifying user name:	WinNT
#	Modification time:	15. 06. 2019 19:07

#	Program:	/corina/corina34_cracker 3.40 0067  02.08.2006

@<TRIPOS>MOLECULE
ASD01180245
  67   69    0    0    0
SMALL
NO_CHARGES


@<TRIPOS>ATOM
   1 C1            -7.1168    -3.1179     1.1317 C.2     
   2 C2            -5.9191    -3.8472     0.5797 C.3     
   3 C3            -5.2798    -4.6887     1.6861 C.3     
   4 O4            -7.4272    -3.2569     2.2911 O.2     
   5 O5            -7.8354    -2.3096     0.3368 O.3     
   6 C6            -2.8973    -4.8229     1.1934 C.2     
   7 C7            -1.7106    -5.5737     0.7409 C.ar    
   8 C8            -1.7768    -6.3902    -0.3987 C.ar    
   9 C9            -0.6517    -7.0685    -0.7821 C.ar    
  10 C10            0.5178    -6.9301    -0.0362 C.ar    
  11 N11            0.5534    -6.1522     1.0371 N.ar    
  12 C12           -0.5046    -5.4776     1.4365 C.ar    
  13 O13           -2.7763    -3.6855     1.6060 O.2     
  14 N14           -4.1156    -5.3977     1.1494 N.am    
  15 N15            1.6580    -7.6147    -0.4211 N.pl3   
  16 C16            1.6025    -8.5599    -1.5391 C.3     
  17 C17            3.0104    -8.7694    -2.1002 C.3     
  18 C18            3.5179    -7.4595    -2.7065 C.3     
  19 C19            4.9814    -7.6228    -3.1215 C.3     
  20 C20            0.0435   -12.2977    -0.1687 C.ar    
  21 C21           -0.3378   -11.7942    -1.4107 C.ar    
  22 C22            0.1688   -10.5873    -1.8483 C.ar    
  23 C23            1.0531    -9.8775    -1.0561 C.ar    
  24 C24            1.4354   -10.3728     0.1775 C.ar    
  25 C25            0.9350   -11.5788     0.6250 C.ar    
  26 C26           -0.5026   -13.5919     0.3097 C.ar    
  27 C27           -0.1213   -14.0954     1.5517 C.ar    
  28 C28           -0.6323   -15.2996     1.9917 C.ar    
  29 C29           -1.5209   -16.0066     1.2020 C.ar    
  30 C30           -1.9025   -15.5117    -0.0320 C.ar    
  31 C31           -1.4029   -14.3053    -0.4790 C.ar    
  32 C32           -2.0751   -17.3212     1.6876 C.3     
  33 F33           -3.2547   -17.0937     2.4045 F       
  34 F34           -2.3476   -18.1461     0.5910 F       
  35 F35           -1.1375   -17.9443     2.5182 F       
  36 C36            2.6760    -7.1059    -3.9342 C.3     
  37 C37           -4.2755    -6.7315     0.5650 C.3     
  38 H38           -6.2342    -4.4982    -0.2358 H       
  39 H39           -5.1932    -3.1243     0.2076 H       
  40 H40           -4.9647    -4.0377     2.5016 H       
  41 H41           -6.0058    -5.4117     2.0581 H       
  42 H42           -8.5948    -1.8633     0.7358 H       
  43 H43           -2.6949    -6.4816    -0.9601 H       
  44 H44           -0.6698    -7.7053    -1.6542 H       
  45 H45           -0.4398    -4.8487     2.3121 H       
  46 H46            2.4936    -7.4686     0.0494 H       
  47 H47            0.9556    -8.1610    -2.3204 H       
  48 H48            3.6788    -9.0812    -1.2976 H       
  49 H49            2.9836    -9.5399    -2.8707 H       
  50 H50            3.4364    -6.6618    -1.9681 H       
  51 H51            5.0628    -8.4205    -3.8599 H       
  52 H52            5.3429    -6.6896    -3.5534 H       
  53 H53            5.5811    -7.8747    -2.2469 H       
  54 H54           -1.0282   -12.3476    -2.0300 H       
  55 H55           -0.1260   -10.1961    -2.8108 H       
  56 H56            2.1264    -9.8147     0.7918 H       
  57 H57            1.2335   -11.9643     1.5886 H       
  58 H58            0.5731   -13.5445     2.1688 H       
  59 H59           -0.3374   -15.6908     2.9543 H       
  60 H60           -2.5964   -16.0680    -0.6447 H       
  61 H61           -1.7054   -13.9173    -1.4404 H       
  62 H62            3.0993    -6.2293    -4.4247 H       
  63 H63            2.6755    -7.9460    -4.6285 H       
  64 H64            1.6536    -6.8903    -3.6238 H       
  65 H65           -4.4661    -6.6393    -0.5042 H       
  66 H66           -3.3647    -7.3091     0.7232 H       
  67 H67           -5.1146    -7.2386     1.0412 H       
@<TRIPOS>BOND
   1    1    2 1
   2    1    4 2
   3    1    5 1
   4    2    3 1
   5    2   38 1
   6    2   39 1
   7    3   14 1
   8    3   40 1
   9    3   41 1
  10    5   42 1
  11    6    7 1
  12    6   13 2
  13    6   14 am
  14    7    8 ar
  15    7   12 ar
  16    8    9 ar
  17    8   43 1
  18    9   10 ar
  19    9   44 1
  20   10   11 ar
  21   10   15 1
  22   11   12 ar
  23   12   45 1
  24   14   37 1
  25   15   16 1
  26   15   46 1
  27   16   17 1
  28   16   23 1
  29   16   47 1
  30   17   18 1
  31   17   48 1
  32   17   49 1
  33   18   19 1
  34   18   36 1
  35   18   50 1
  36   19   51 1
  37   19   52 1
  38   19   53 1
  39   20   21 ar
  40   20   25 ar
  41   20   26 1
  42   21   22 ar
  43   21   54 1
  44   22   23 ar
  45   22   55 1
  46   23   24 ar
  47   24   25 ar
  48   24   56 1
  49   25   57 1
  50   26   27 ar
  51   26   31 ar
  52   27   28 ar
  53   27   58 1
  54   28   29 ar
  55   28   59 1
  56   29   30 ar
  57   29   32 1
  58   30   31 ar
  59   30   60 1
  60   31   61 1
  61   32   33 1
  62   32   34 1
  63   32   35 1
  64   36   62 1
  65   36   63 1
  66   36   64 1
  67   37   65 1
  68   37   66 1
  69   37   67 1

#	End of record

