#	Name: ASD00843667
#	Creating user name:	WinNT
#	Creation time:	15. 06. 2019 18:47

#	Modifying user name:	WinNT
#	Modification time:	15. 06. 2019 18:47

#	Program:	/corina/corina34_cracker 3.40 0067  02.08.2006

@<TRIPOS>MOLECULE
ASD00843667
  81   86    0    0    0
SMALL
NO_CHARGES


@<TRIPOS>ATOM
   1 F1             5.7153    -2.4891    -1.9140 F       
   2 N2             0.9497     1.0795    -0.2073 N.ar    
   3 C3             1.1141    -0.1991    -0.5026 C.ar    
   4 C4             0.9530    -1.1768     0.4710 C.ar    
   5 C5             0.6173    -0.7960     1.7583 C.ar    
   6 C6             0.4537     0.5560     2.0275 C.ar    
   7 C7             0.6295     1.4732     1.0109 C.ar    
   8 C8             1.1408    -2.6326     0.1298 C.3     
   9 C9             0.7731    -3.5058     1.3105 C.2     
  10 C10            0.3037    -3.0069    -1.0950 C.3     
  11 C11           -1.1368    -2.6378    -0.8508 C.2     
  12 N12           -2.0809    -2.9750    -1.7515 N.am    
  13 O13           -1.4465    -2.0372     0.1563 O.2     
  14 C14           -3.4698    -2.5261    -1.5839 C.3     
  15 C15           -4.3932    -3.7470    -1.6433 C.3     
  16 C16           -4.1333    -4.5155    -2.9410 C.3     
  17 C17           -2.6834    -5.0049    -2.9644 C.3     
  18 C18           -1.7395    -3.7935    -2.9230 C.3     
  19 C19           -5.0779    -5.7165    -3.0202 C.3     
  20 C20           -6.5291    -5.2284    -2.9985 C.3     
  21 C21           -7.4680    -6.4287    -3.1392 C.3     
  22 N22           -7.1864    -7.1269    -4.4000 N.3     
  23 C23           -5.8129    -7.6459    -4.4242 C.3     
  24 C24           -4.8245    -6.4820    -4.3218 C.3     
  25 H25           -7.8548    -7.8653    -4.5615 H       
  26 O26           -0.3150    -3.5785     1.8414 O.2     
  27 N27            1.8784    -4.1854     1.6595 N.am    
  28 C28            2.6019    -2.9357    -0.1111 C.ar    
  29 C29            2.9693    -3.8740     0.8452 C.ar    
  30 C30            3.5140    -2.4716    -1.0322 C.ar    
  31 C31            4.8172    -2.9415    -1.0117 C.ar    
  32 C32            5.1962    -3.8782    -0.0620 C.ar    
  33 C33            4.2806    -4.3436     0.8621 C.ar    
  34 F34            6.4665    -4.3377    -0.0403 F       
  35 C35            1.5289    -6.8497     2.2542 C.ar    
  36 C36            2.5241    -7.6741     1.7634 C.ar    
  37 C37            0.2118    -7.2690     2.2345 C.ar    
  38 C38           -0.1101    -8.5126     1.7240 C.ar    
  39 C39            0.8850    -9.3368     1.2328 C.ar    
  40 C40            2.2021    -8.9176     1.2524 C.ar    
  41 H41            0.6335   -10.3085     0.8339 H       
  42 H42            3.5531    -7.3465     1.7787 H       
  43 O43            1.4427    -0.5594    -1.7687 O.3     
  44 C44            1.5474     0.4883    -2.7349 C.3     
  45 C45            2.0241    -0.0928    -4.0676 C.3     
  46 F46            3.2339    -0.7686    -3.8755 F       
  47 F47            1.0642    -0.9850    -4.5573 F       
  48 S48            1.9400    -5.2675     2.9115 S.o2    
  49 O49            3.3015    -5.3408     3.3119 O.2     
  50 O50            0.8870    -4.9154     3.7983 O.2     
  51 H51            0.4851    -1.5339     2.5358 H       
  52 H52            0.1914     0.8868     3.0216 H       
  53 H53            0.5039     2.5262     1.2151 H       
  54 H54            0.6742    -2.4678    -1.9669 H       
  55 H55            0.3788    -4.0798    -1.2723 H       
  56 H56           -3.5800    -2.0313    -0.6190 H       
  57 H57           -3.7288    -1.8328    -2.3841 H       
  58 H58           -4.1940    -4.3957    -0.7903 H       
  59 H59           -5.4323    -3.4190    -1.6167 H       
  60 H60           -4.3088    -3.8590    -3.7932 H       
  61 H61           -2.5003    -5.6417    -2.0989 H       
  62 H62           -2.5056    -5.5720    -3.8781 H       
  63 H63           -1.8588    -3.2060    -3.8332 H       
  64 H64           -0.7083    -4.1365    -2.8395 H       
  65 H65           -4.9023    -6.3747    -2.1693 H       
  66 H66           -6.7278    -4.7195    -2.0554 H       
  67 H67           -6.6934    -4.5388    -3.8265 H       
  68 H68           -7.3128    -7.1111    -2.3036 H       
  69 H69           -8.5018    -6.0831    -3.1386 H       
  70 H70           -5.6654    -8.3226    -3.5825 H       
  71 H71           -5.6445    -8.1844    -5.3567 H       
  72 H72           -4.9620    -5.8121    -5.1706 H       
  73 H73           -3.8054    -6.8687    -4.3241 H       
  74 H74            3.2138    -1.7423    -1.7701 H       
  75 H75            4.5823    -5.0728     1.5993 H       
  76 H76           -0.5657    -6.6251     2.6182 H       
  77 H77           -1.1391    -8.8405     1.7092 H       
  78 H78            2.9796    -9.5616     0.8690 H       
  79 H79            0.5723     0.9561    -2.8706 H       
  80 H80            2.2626     1.2335    -2.3868 H       
  81 H81            2.1690     0.7149    -4.7850 H       
@<TRIPOS>BOND
   1    1   31 1
   2    2    3 ar
   3    2    7 ar
   4    3    4 ar
   5    3   43 1
   6    4    5 ar
   7    4    8 1
   8    5    6 ar
   9    5   51 1
  10    6    7 ar
  11    6   52 1
  12    7   53 1
  13    8    9 1
  14    8   10 1
  15    8   28 1
  16    9   26 2
  17    9   27 am
  18   10   11 1
  19   10   54 1
  20   10   55 1
  21   11   12 am
  22   11   13 2
  23   12   14 1
  24   12   18 1
  25   14   15 1
  26   14   56 1
  27   14   57 1
  28   15   16 1
  29   15   58 1
  30   15   59 1
  31   16   17 1
  32   16   19 1
  33   16   60 1
  34   17   18 1
  35   17   61 1
  36   17   62 1
  37   18   63 1
  38   18   64 1
  39   19   20 1
  40   19   24 1
  41   19   65 1
  42   20   21 1
  43   20   66 1
  44   20   67 1
  45   21   22 1
  46   21   68 1
  47   21   69 1
  48   22   23 1
  49   22   25 1
  50   23   24 1
  51   23   70 1
  52   23   71 1
  53   24   72 1
  54   24   73 1
  55   27   48 am
  56   27   29 1
  57   28   29 ar
  58   28   30 ar
  59   29   33 ar
  60   30   31 ar
  61   30   74 1
  62   31   32 ar
  63   32   33 ar
  64   32   34 1
  65   33   75 1
  66   35   36 ar
  67   35   37 ar
  68   35   48 1
  69   36   42 1
  70   36   40 ar
  71   37   38 ar
  72   37   76 1
  73   38   39 ar
  74   38   77 1
  75   39   40 ar
  76   39   41 1
  77   40   78 1
  78   43   44 1
  79   44   45 1
  80   44   79 1
  81   44   80 1
  82   45   46 1
  83   45   47 1
  84   45   81 1
  85   48   49 2
  86   48   50 2

#	End of record

