#	Name: ASD03080036
#	Creating user name:	WinNT
#	Creation time:	15. 06. 2019 20:26

#	Modifying user name:	WinNT
#	Modification time:	15. 06. 2019 20:26

#	Program:	/corina/corina34_cracker 3.40 0067  02.08.2006

@<TRIPOS>MOLECULE
ASD03080036
  31   33    0    0    0
SMALL
NO_CHARGES


@<TRIPOS>ATOM
   1 C1            -0.0166     1.3756     0.0096 C.ar    
   2 C2             0.0021    -0.0041     0.0020 C.ar    
   3 C3             1.2216    -0.6822    -0.0132 C.ar    
   4 C4             2.4154     0.0412    -0.0207 C.ar    
   5 C5             2.3827     1.4202    -0.0130 C.ar    
   6 C6             1.1700     2.0865     0.0021 C.ar    
   7 S7            -1.5555     2.2338     0.0215 S.o2    
   8 O8            -1.2997     3.5237    -0.5171 O.2     
   9 O9            -2.5172     1.3408    -0.5232 O.2     
  10 N10           -1.9761     2.4640     1.6066 N.am    
  11 O11            0.1864    -2.9797    -0.0152 O.3     
  12 N12            0.5554    -4.1349    -0.0252 N.2     
  13 C13            1.8624    -4.1946    -0.0381 C.2     
  14 N14            2.3236    -2.9265    -0.0356 N.2     
  15 C15            1.2492    -2.1603    -0.0210 C.2     
  16 C16            4.0769    -5.3527    -0.0648 C.ar    
  17 C17            2.6859    -5.4296    -0.0522 C.ar    
  18 C18            2.0786    -6.6878    -0.0525 C.ar    
  19 C19            2.8909    -7.8091    -0.0655 C.ar    
  20 C20            4.2642    -7.6492    -0.0775 C.ar    
  21 N21            4.8089    -6.4476    -0.0764 N.ar    
  22 H22           -0.9251    -0.5579     0.0082 H       
  23 H23            3.3626    -0.4776    -0.0322 H       
  24 H24            3.3057     1.9811    -0.0184 H       
  25 H25            1.1499     3.1663     0.0081 H       
  26 H26           -2.5026     3.2379     1.8612 H       
  27 H27           -1.6960     1.8249     2.2804 H       
  28 H28            4.5593    -4.3864    -0.0692 H       
  29 H29            1.0029    -6.7834    -0.0426 H       
  30 H30            2.4564    -8.7978    -0.0658 H       
  31 H31            4.9009    -8.5215    -0.0876 H       
@<TRIPOS>BOND
   1    1    2 ar
   2    1    6 ar
   3    1    7 1
   4    2    3 ar
   5    2   22 1
   6    3    4 ar
   7    3   15 1
   8    4    5 ar
   9    4   23 1
  10    5    6 ar
  11    5   24 1
  12    6   25 1
  13    7    8 2
  14    7    9 2
  15    7   10 am
  16   10   26 1
  17   10   27 1
  18   11   12 1
  19   11   15 1
  20   12   13 2
  21   13   14 1
  22   13   17 1
  23   14   15 2
  24   16   17 ar
  25   16   21 ar
  26   16   28 1
  27   17   18 ar
  28   18   19 ar
  29   18   29 1
  30   19   20 ar
  31   19   30 1
  32   20   21 ar
  33   20   31 1

#	End of record

