#	Name: ASD01814591
#	Creating user name:	WinNT
#	Creation time:	15. 06. 2019 19:32

#	Modifying user name:	WinNT
#	Modification time:	15. 06. 2019 19:32

#	Program:	/corina/corina34_cracker 3.40 0067  02.08.2006

@<TRIPOS>MOLECULE
ASD01814591
  45   48    0    0    0
SMALL
NO_CHARGES


@<TRIPOS>ATOM
   1 N1             0.0195     1.3261    -0.5428 N.2     
   2 C2             0.0435     0.0247    -0.7097 C.2     
   3 C3             1.2624    -0.6398    -0.9143 C.2     
   4 C4             2.4150     0.0743    -0.9380 C.2     
   5 N5             2.3615     1.4277    -0.7616 N.pl3   
   6 C6             1.1517     2.0417    -0.5643 C.2     
   7 N7             3.3490     2.4179    -0.7332 N.2     
   8 C8             2.7754     3.5865    -0.5283 C.2     
   9 C9             1.4078     3.3999    -0.4179 C.2     
  10 C10            3.0772     5.0567    -0.3720 C.3     
  11 N11            1.8049     5.7534    -0.1584 N.am    
  12 C12            0.7498     4.7353    -0.1836 C.3     
  13 C13            1.6370     7.0778     0.0261 C.2     
  14 C14            2.8118     7.9622     0.1313 C.ar    
  15 C15            3.8631     7.8450    -0.7824 C.ar    
  16 C16            2.8776     8.9288     1.1448 C.ar    
  17 C17            3.9860     9.7557     1.2350 C.ar    
  18 C18            5.0224     9.6268     0.3276 C.ar    
  19 C19            4.9578     8.6737    -0.6800 C.ar    
  20 O20            0.5164     7.5434     0.1059 O.2     
  21 C21           -1.2432    -0.7593    -0.6811 C.3     
  22 Cl22           1.2946    -2.3615    -1.1346 Cl      
  23 C23            3.7368    -0.6159    -1.1554 C.3     
  24 O24            1.8601     9.0545     2.0332 O.3     
  25 C25            1.9970    10.0611     3.0382 C.3     
  26 C26            0.7612    10.0525     3.9402 C.3     
  27 F27            6.1004    10.4359     0.4192 F       
  28 H28            3.7310     5.2103     0.4865 H       
  29 H29            3.5574     5.4333    -1.2751 H       
  30 H30            0.0491     4.9487    -0.9909 H       
  31 H31            0.2234     4.7255     0.7708 H       
  32 H32            3.8169     7.1050    -1.5676 H       
  33 H33            4.0408    10.5016     2.0141 H       
  34 H34            5.7694     8.5822    -1.3866 H       
  35 H35           -2.0789    -0.0802    -0.5123 H       
  36 H36           -1.3779    -1.2714    -1.6339 H       
  37 H37           -1.2034    -1.4936     0.1235 H       
  38 H38            3.5723    -1.6869    -1.2742 H       
  39 H39            4.2104    -0.2193    -2.0535 H       
  40 H40            4.3839    -0.4409    -0.2959 H       
  41 H41            2.8851     9.8585     3.6368 H       
  42 H42            2.0936    11.0376     2.5636 H       
  43 H43            0.8656    10.8204     4.7068 H       
  44 H44           -0.1270    10.2551     3.3416 H       
  45 H45            0.6645     9.0761     4.4148 H       
@<TRIPOS>BOND
   1    1    2 2
   2    1    6 1
   3    2    3 1
   4    2   21 1
   5    3    4 2
   6    3   22 1
   7    4    5 1
   8    4   23 1
   9    5    7 1
  10    5    6 1
  11    6    9 2
  12    7    8 2
  13    8   10 1
  14    8    9 1
  15    9   12 1
  16   10   11 1
  17   10   28 1
  18   10   29 1
  19   11   12 1
  20   11   13 am
  21   12   30 1
  22   12   31 1
  23   13   14 1
  24   13   20 2
  25   14   16 ar
  26   14   15 ar
  27   15   19 ar
  28   15   32 1
  29   16   17 ar
  30   16   24 1
  31   17   18 ar
  32   17   33 1
  33   18   19 ar
  34   18   27 1
  35   19   34 1
  36   21   35 1
  37   21   36 1
  38   21   37 1
  39   23   38 1
  40   23   39 1
  41   23   40 1
  42   24   25 1
  43   25   26 1
  44   25   41 1
  45   25   42 1
  46   26   43 1
  47   26   44 1
  48   26   45 1

#	End of record

