#	Name: ASD01820140
#	Creating user name:	WinNT
#	Creation time:	15. 06. 2019 19:36

#	Modifying user name:	WinNT
#	Modification time:	15. 06. 2019 19:36

#	Program:	/corina/corina34_cracker 3.40 0067  02.08.2006

@<TRIPOS>MOLECULE
ASD01820140
  96  108    0    0    0
SMALL
NO_CHARGES


@<TRIPOS>ATOM
   1 N1            -0.0180     1.4739     0.0101 N.3     
   2 C2             0.0021    -0.0041     0.0020 C.3     
   3 C3            -0.2113    -0.2698    -1.5042 C.3     
   4 C4             0.8638    -0.8475    -2.3927 C.3     
   5 N5             1.8418     0.1538    -2.9103 N.3     
   6 C6             2.7091     0.5400    -1.7790 C.3     
   7 C7             2.0117     1.8800    -1.3909 C.3     
   8 C8             1.4170     1.8700    -0.0014 C.3     
   9 C9             0.1588    -1.0989    -3.7291 C.3     
  10 C10            0.0995     0.3011    -4.2729 C.ar    
  11 C11            1.1974     1.0025    -3.7587 C.ar    
  12 C12           -0.8182     0.8882    -5.1209 C.ar    
  13 C13           -0.5760     2.2040    -5.4946 C.ar    
  14 C14            0.5344     2.8890    -5.0454 C.ar    
  15 C15            1.4440     2.3082    -4.1730 C.ar    
  16 C16            3.3288     2.6455    -1.2816 C.3     
  17 C17            3.0638     4.1413    -1.1337 C.3     
  18 C18            2.3325     4.2769     0.2044 C.3     
  19 C19            1.1244     3.3453     0.2837 C.3     
  20 C20            0.0073     3.5597    -0.6995 C.ar    
  21 C21           -0.6844     2.3495    -0.7971 C.ar    
  22 C22           -0.3520     4.6773    -1.4216 C.ar    
  23 C23           -1.4696     4.5635    -2.2373 C.ar    
  24 C24           -2.1856     3.3880    -2.3094 C.ar    
  25 C25           -1.8204     2.2561    -1.5935 C.ar    
  26 C26            0.7831     3.4378     1.7739 C.3     
  27 C27            4.1305     2.1328    -0.1070 C.3     
  28 N28            3.1234     3.9217     1.3739 N.4     
  29 C29            2.1180     3.7569     2.4395 C.3     
  30 H30            1.9954     1.3277     0.7536 H       
  31 H31            1.3284     2.2845    -2.1453 H       
  32 H32            3.9067     2.4931    -2.2126 H       
  33 O33            2.6715    -0.0863    -0.4946 O.3     
  34 C34            4.8211     0.7778    -0.2398 C.3     
  35 C35            3.9889    -0.4765    -0.0130 C.3     
  36 H36            3.7406     0.6875    -2.1396 H       
  37 H37            1.3816    -1.7238    -1.9817 H       
  38 O38            1.0245    -0.7547     0.5426 O.3     
  39 C39           -1.1555    -1.8750    -3.6808 C.3     
  40 C40           -1.3416    -1.2811    -1.3425 C.3     
  41 C41           -2.1384    -1.3200    -2.6497 C.3     
  42 H42           -0.6166     0.6302    -1.9872 H       
  43 C43           -0.8611    -2.6637    -0.9939 C.3     
  44 N44           -0.7595    -3.2605    -3.4692 N.4     
  45 C45            1.0339    -2.0566    -4.5431 C.3     
  46 C46            0.4351    -3.4406    -4.3125 C.3     
  47 H47           -2.0297    -0.9296    -0.5520 H       
  48 C48           -0.0583    -2.8655     0.2810 C.3     
  49 C49            1.2688    -2.1306     0.3593 C.3     
  50 H50           -0.9273    -0.3166     0.5247 H       
  51 C51            4.1189     4.9633     1.7273 C.3     
  52 C52           -1.8292    -4.2331    -3.7893 C.3     
  53 H53           -1.8122    -3.2208    -0.8048 H       
  54 H54            5.0369     2.7927    -0.2392 H       
  55 C55           -0.1946    -3.4476    -2.1291 C.3     
  56 C56            3.7106     2.5888     1.2937 C.3     
  57 H57           -1.6822     0.3446    -5.4823 H       
  58 H58           -1.2786     2.7060    -6.1465 H       
  59 H59            0.6967     3.9061    -5.3790 H       
  60 H60            2.3159     2.8508    -3.8267 H       
  61 H61            4.0000     4.6921    -1.1229 H       
  62 H62            2.4279     4.4870    -1.9454 H       
  63 H63            1.9804     5.3166     0.2989 H       
  64 H64            0.2087     5.5981    -1.3457 H       
  65 H65           -1.7799     5.4126    -2.8284 H       
  66 H66           -3.0526     3.3439    -2.9514 H       
  67 H67           -2.3965     1.3439    -1.6459 H       
  68 H68            0.0562     4.2298     1.9495 H       
  69 H69            0.3946     2.4832     2.1312 H       
  70 H70            2.0326     4.6745     3.0232 H       
  71 H71            2.4114     2.9397     3.0988 H       
  72 H72            5.2636     0.7192    -1.2356 H       
  73 H73            5.6578     0.7556     0.4691 H       
  74 H74            3.9598    -0.7461     1.0430 H       
  75 H75            4.3790    -1.3146    -0.6019 H       
  76 H76           -1.6318    -1.7917    -4.6716 H       
  77 H77           -2.4562    -0.3161    -2.9277 H       
  78 H78           -2.9993    -1.9740    -2.5428 H       
  79 H79            1.0059    -1.7904    -5.5993 H       
  80 H80            2.0627    -2.0256    -4.1754 H       
  81 H81            1.1517    -4.0871    -3.8069 H       
  82 H82            0.1521    -3.8895    -5.2675 H       
  83 H83           -0.6782    -2.5531     1.1319 H       
  84 H84            0.1347    -3.9395     0.4040 H       
  85 H85            1.8869    -2.3279    -0.5167 H       
  86 H86            1.8284    -2.5124     1.2346 H       
  87 H87            3.6042     5.8995     1.9433 H       
  88 H88            4.6802     4.6461     2.6063 H       
  89 H89            4.8039     5.1095     0.8921 H       
  90 H90           -2.1126    -4.1300    -4.8367 H       
  91 H91           -1.4661    -5.2449    -3.6091 H       
  92 H92           -2.6963    -4.0404    -3.1576 H       
  93 H93            0.8725    -3.2610    -2.1577 H       
  94 H94           -0.3071    -4.5219    -1.8944 H       
  95 H95            3.0686     1.8651     1.7820 H       
  96 H96            4.6313     2.6179     1.9181 H       
@<TRIPOS>BOND
   1    1    2 1
   2    1    8 1
   3    1   21 1
   4    2    3 1
   5    2   38 1
   6    2   50 1
   7    3    4 1
   8    3   42 1
   9    3   40 1
  10    4    5 1
  11    4    9 1
  12    4   37 1
  13    5    6 1
  14    5   11 1
  15    6    7 1
  16    6   33 1
  17    6   36 1
  18    7    8 1
  19    7   31 1
  20    7   16 1
  21    8   19 1
  22    8   30 1
  23    9   10 1
  24    9   45 1
  25    9   39 1
  26   10   11 ar
  27   10   12 ar
  28   11   15 ar
  29   12   13 ar
  30   12   57 1
  31   13   14 ar
  32   13   58 1
  33   14   15 ar
  34   14   59 1
  35   15   60 1
  36   16   17 1
  37   16   32 1
  38   16   27 1
  39   17   18 1
  40   17   61 1
  41   17   62 1
  42   18   19 1
  43   18   28 1
  44   18   63 1
  45   19   20 1
  46   19   26 1
  47   20   21 ar
  48   20   22 ar
  49   21   25 ar
  50   22   23 ar
  51   22   64 1
  52   23   24 ar
  53   23   65 1
  54   24   25 ar
  55   24   66 1
  56   25   67 1
  57   26   29 1
  58   26   68 1
  59   26   69 1
  60   27   34 1
  61   27   54 1
  62   27   56 1
  63   28   51 1
  64   28   56 1
  65   28   29 1
  66   29   70 1
  67   29   71 1
  68   33   35 1
  69   34   35 1
  70   34   72 1
  71   34   73 1
  72   35   74 1
  73   35   75 1
  74   38   49 1
  75   39   44 1
  76   39   41 1
  77   39   76 1
  78   40   41 1
  79   40   47 1
  80   40   43 1
  81   41   77 1
  82   41   78 1
  83   43   48 1
  84   43   53 1
  85   43   55 1
  86   44   52 1
  87   44   55 1
  88   44   46 1
  89   45   46 1
  90   45   79 1
  91   45   80 1
  92   46   81 1
  93   46   82 1
  94   48   49 1
  95   48   83 1
  96   48   84 1
  97   49   85 1
  98   49   86 1
  99   51   87 1
 100   51   88 1
 101   51   89 1
 102   52   90 1
 103   52   91 1
 104   52   92 1
 105   55   93 1
 106   55   94 1
 107   56   95 1
 108   56   96 1

#	End of record

