#	Name: ASD02562016
#	Creating user name:	WinNT
#	Creation time:	15. 06. 2019 20:25

#	Modifying user name:	WinNT
#	Modification time:	15. 06. 2019 20:25

#	Program:	/corina/corina34_cracker 3.40 0067  02.08.2006

@<TRIPOS>MOLECULE
ASD02562016
  45   48    0    0    0
SMALL
NO_CHARGES


@<TRIPOS>ATOM
   1 C1            -1.1123     1.5055     0.6520 C.ar    
   2 C2            -1.0587     0.1386     0.8586 C.ar    
   3 C3            -1.2179    -0.7366    -0.2077 C.ar    
   4 C4            -1.4315    -0.2431    -1.4838 C.ar    
   5 C5            -1.4864     1.1355    -1.6944 C.ar    
   6 C6            -1.3301     2.0083    -0.6160 C.ar    
   7 Cl7           -0.9122     2.5918     1.9912 Cl      
   8 O8            -1.1634    -2.0783     0.0011 O.3     
   9 C9             0.0420    -2.6943    -0.1192 C.ar    
  10 C10            0.1279    -4.0773    -0.0284 C.ar    
  11 C11            1.3542    -4.7040    -0.1513 C.ar    
  12 C12            2.4964    -3.9561    -0.3640 C.ar    
  13 C13            2.4154    -2.5737    -0.4549 C.ar    
  14 C14            1.1865    -1.9430    -0.3383 C.ar    
  15 Cl15          -1.3051    -5.0198     0.2399 Cl      
  16 O16            3.5397    -1.8390    -0.6638 O.3     
  17 C17            4.7706    -2.5555    -0.7803 C.3     
  18 C18            5.8987    -1.5824    -1.0073 C.2     
  19 N19            7.1601    -1.8969    -1.1581 N.2     
  20 N20            7.8926    -0.7179    -1.3465 N.pl3   
  21 C21            7.0181     0.3256    -1.3032 C.2     
  22 C22            5.7724    -0.1956    -1.0980 C.2     
  23 C23            7.3550     1.7597    -1.4560 C.2     
  24 C24            8.6007     2.2786    -1.6668 C.2     
  25 N25            8.4754     3.6186    -1.7487 N.pl3   
  26 N26            7.1233     3.9431    -1.5855 N.2     
  27 C27            6.4476     2.8378    -1.4164 C.2     
  28 C28            9.5664     4.5710    -1.9698 C.3     
  29 C29           -1.7069     1.6530    -3.0114 C.1     
  30 N30           -1.8819     2.0634    -4.0560 N.1     
  31 H31           -0.8922    -0.2492     1.8527 H       
  32 H32           -1.5550    -0.9231    -2.3137 H       
  33 H33           -1.3718     3.0758    -0.7742 H       
  34 H34            1.4194    -5.7797    -0.0805 H       
  35 H35            3.4532    -4.4478    -0.4593 H       
  36 H36            1.1219    -0.8672    -0.4092 H       
  37 H37            4.9530    -3.1158     0.1368 H       
  38 H38            4.7111    -3.2456    -1.6219 H       
  39 H39            8.8509    -0.6557    -1.4831 H       
  40 H40            4.8538     0.3662    -1.0142 H       
  41 H41            9.5195     1.7173    -1.7522 H       
  42 H42            5.3808     2.7636    -1.2651 H       
  43 H43            9.6967     4.7321    -3.0399 H       
  44 H44            9.3256     5.5179    -1.4865 H       
  45 H45           10.4885     4.1717    -1.5475 H       
@<TRIPOS>BOND
   1    1    2 ar
   2    1    7 1
   3    1    6 ar
   4    2    3 ar
   5    2   31 1
   6    3    4 ar
   7    3    8 1
   8    4    5 ar
   9    4   32 1
  10    5    6 ar
  11    5   29 1
  12    6   33 1
  13    8    9 1
  14    9   10 ar
  15    9   14 ar
  16   10   11 ar
  17   10   15 1
  18   11   12 ar
  19   11   34 1
  20   12   13 ar
  21   12   35 1
  22   13   14 ar
  23   13   16 1
  24   14   36 1
  25   16   17 1
  26   17   18 1
  27   17   37 1
  28   17   38 1
  29   18   19 2
  30   18   22 1
  31   19   20 1
  32   20   21 1
  33   20   39 1
  34   21   22 2
  35   21   23 1
  36   22   40 1
  37   23   24 2
  38   23   27 1
  39   24   25 1
  40   24   41 1
  41   25   26 1
  42   25   28 1
  43   26   27 2
  44   27   42 1
  45   28   43 1
  46   28   44 1
  47   28   45 1
  48   29   30 3

#	End of record

