#	Name: ASD01811060
#	Creating user name:	WinNT
#	Creation time:	15. 06. 2019 19:25

#	Modifying user name:	WinNT
#	Modification time:	15. 06. 2019 19:25

#	Program:	/corina/corina34_cracker 3.40 0067  02.08.2006

@<TRIPOS>MOLECULE
ASD01811060
  43   46    0    0    0
SMALL
NO_CHARGES


@<TRIPOS>ATOM
   1 C1            -0.0168     1.3890     0.0097 C.ar    
   2 C2             0.0021    -0.0041     0.0020 C.ar    
   3 C3            -1.2641    -0.8085    -0.0082 C.3     
   4 C4            -2.4665    -0.0256     0.4055 C.2     
   5 C5            -2.5165     1.3159     0.4231 C.2     
   6 C6            -1.3202     2.0975     0.0397 C.2     
   7 C7            -1.4918    -1.3470    -1.4221 C.3     
   8 C8            -2.6921    -2.2583    -1.4252 C.ar    
   9 C9            -3.9508    -1.7391    -1.6688 C.ar    
  10 C10           -5.0535    -2.5691    -1.6728 C.ar    
  11 C11           -4.8970    -3.9324    -1.4310 C.ar    
  12 C12           -3.6267    -4.4500    -1.1862 C.ar    
  13 C13           -2.5302    -3.6118    -1.1901 C.ar    
  14 C14           -6.0789    -4.8297    -1.4336 C.ar    
  15 C15           -5.9224    -6.1929    -1.1917 C.ar    
  16 C16           -7.0251    -7.0229    -1.1954 C.ar    
  17 C17           -8.2839    -6.5037    -1.4390 C.ar    
  18 C18           -8.4449    -5.1512    -1.6801 C.ar    
  19 C19           -7.3499    -4.3111    -1.6723 C.ar    
  20 O20           -1.4023     3.2770    -0.2412 O.2     
  21 C21           -3.7578     2.0071     0.8226 C.2     
  22 O22           -4.7382     1.3620     1.1367 O.2     
  23 O23           -3.8038     3.3535     0.8389 O.3     
  24 N24            1.1183     2.0794     0.0025 N.ar    
  25 C25            2.2726     1.4425    -0.0043 C.ar    
  26 C26            2.2959     0.0547    -0.0038 C.ar    
  27 N27            1.1694    -0.6325    -0.0007 N.ar    
  28 H28           -1.1468    -1.6535     0.6702 H       
  29 H29           -3.3483    -0.5708     0.7081 H       
  30 H30           -1.6657    -0.5148    -2.1042 H       
  31 H31           -0.6121    -1.9037    -1.7449 H       
  32 H32           -4.0710    -0.6822    -1.8557 H       
  33 H33           -6.0359    -2.1627    -1.8627 H       
  34 H34           -3.4998    -5.5059    -0.9982 H       
  35 H35           -1.5452    -4.0119    -1.0005 H       
  36 H36           -4.9399    -6.5995    -1.0021 H       
  37 H37           -6.9050    -8.0797    -1.0081 H       
  38 H38           -9.1440    -7.1568    -1.4413 H       
  39 H39           -9.4300    -4.7512    -1.8701 H       
  40 H40           -7.4769    -3.2552    -1.8603 H       
  41 H41           -4.6386     3.7610     1.1075 H       
  42 H42            3.1979     1.9994    -0.0106 H       
  43 H43            3.2420    -0.4661    -0.0064 H       
@<TRIPOS>BOND
   1    1    2 ar
   2    1   24 ar
   3    1    6 1
   4    2    3 1
   5    2   27 ar
   6    3    4 1
   7    3    7 1
   8    3   28 1
   9    4    5 2
  10    4   29 1
  11    5    6 1
  12    5   21 1
  13    6   20 2
  14    7    8 1
  15    7   30 1
  16    7   31 1
  17    8    9 ar
  18    8   13 ar
  19    9   10 ar
  20    9   32 1
  21   10   11 ar
  22   10   33 1
  23   11   12 ar
  24   11   14 1
  25   12   13 ar
  26   12   34 1
  27   13   35 1
  28   14   15 ar
  29   14   19 ar
  30   15   16 ar
  31   15   36 1
  32   16   17 ar
  33   16   37 1
  34   17   18 ar
  35   17   38 1
  36   18   19 ar
  37   18   39 1
  38   19   40 1
  39   21   22 2
  40   21   23 1
  41   23   41 1
  42   24   25 ar
  43   25   26 ar
  44   25   42 1
  45   26   27 ar
  46   26   43 1

#	End of record

