#	Name: ASD02500527
#	Creating user name:	WinNT
#	Creation time:	15. 06. 2019 20:23

#	Modifying user name:	WinNT
#	Modification time:	15. 06. 2019 20:23

#	Program:	/corina/corina34_cracker 3.40 0067  02.08.2006

@<TRIPOS>MOLECULE
ASD02500527
  72   76    0    0    0
SMALL
NO_CHARGES


@<TRIPOS>ATOM
   1 N1             3.8949     3.0065    -1.7351 N.ar    
   2 C2             4.8244     2.5586    -0.9266 C.ar    
   3 C3             5.7652     1.6178    -1.3405 C.ar    
   4 C4             5.7327     1.1382    -2.6188 C.ar    
   5 C5             4.7328     1.6211    -3.4842 C.ar    
   6 C6             4.6369     1.1750    -4.8118 C.ar    
   7 C7             3.6555     1.6666    -5.6177 C.ar    
   8 C8             2.7448     2.6076    -5.1424 C.ar    
   9 C9             2.8086     3.0619    -3.8610 C.ar    
  10 C10            3.8075     2.5782    -2.9985 C.ar    
  11 S11            1.6442     4.2528    -3.2859 S.o2    
  12 O12            2.3977     5.2765    -2.6507 O.2     
  13 O13            0.7550     4.4990    -4.3666 O.2     
  14 N14            0.7470     3.5272    -2.0981 N.am    
  15 C15           -0.0417     2.4224    -2.3995 C.ar    
  16 C16           -0.0272     1.3096    -1.5630 C.ar    
  17 C17           -0.8066     0.2147    -1.8586 C.ar    
  18 C18           -1.6134     0.2206    -3.0002 C.ar    
  19 C19           -1.6258     1.3395    -3.8381 C.ar    
  20 C20           -0.8484     2.4335    -3.5341 C.ar    
  21 C21           -2.4498    -0.9518    -3.3202 C.2     
  22 O22           -3.5863    -0.7959    -3.7234 O.2     
  23 N23           -1.9542    -2.1955    -3.1655 N.am    
  24 C24           -2.7283    -3.2916    -3.5872 C.3     
  25 C25           -2.9946    -4.2557    -2.4032 C.3     
  26 N26           -1.7637    -4.9531    -2.0918 N.3     
  27 C27           -0.9441    -4.3397    -1.0262 C.3     
  28 C28           -0.8337    -2.8199    -1.1372 C.3     
  29 C29           -0.6147    -2.3591    -2.5647 C.3     
  30 C30           -2.0195    -6.3717    -1.8085 C.3     
  31 C31           -2.4536    -7.0662    -3.0735 C.ar    
  32 C32           -1.5055    -7.5118    -3.9815 C.ar    
  33 C33           -1.9078    -8.1510    -5.1456 C.ar    
  34 C34           -3.2522    -8.3435    -5.4002 C.ar    
  35 C35           -4.1991    -7.9003    -4.4969 C.ar    
  36 C36           -3.8017    -7.2656    -3.3285 C.ar    
  37 O37           -4.7333    -6.8349    -2.4378 O.3     
  38 C38           -6.1035    -7.0741    -2.7654 C.3     
  39 O39           -0.1831    -7.3223    -3.7318 O.3     
  40 C40            0.7379    -7.8072    -4.7110 C.3     
  41 H41            4.8623     2.9290     0.0872 H       
  42 H42            6.5196     1.2684    -0.6511 H       
  43 H43            6.4543     0.4090    -2.9566 H       
  44 H44            5.3376     0.4463    -5.1919 H       
  45 H45            3.5825     1.3229    -6.6390 H       
  46 H46            1.9758     2.9829    -5.8015 H       
  47 H47            0.7716     3.8729    -1.1922 H       
  48 H48            0.5966     1.3056    -0.6814 H       
  49 H49           -0.7947    -0.6484    -1.2095 H       
  50 H50           -2.2478     1.3468    -4.7210 H       
  51 H51           -0.8611     3.3001    -4.1784 H       
  52 H52           -3.6797    -2.9309    -3.9783 H       
  53 H53           -2.1962    -3.8264    -4.3739 H       
  54 H54           -3.3227    -3.6860    -1.5338 H       
  55 H55           -3.7629    -4.9763    -2.6835 H       
  56 H56           -1.3853    -4.5876    -0.0608 H       
  57 H57            0.0581    -4.7661    -1.0681 H       
  58 H58           -1.7511    -2.3708    -0.7569 H       
  59 H59            0.0026    -2.4814    -0.5256 H       
  60 H60           -0.0480    -3.1089    -3.1169 H       
  61 H61           -0.0834    -1.4075    -2.5748 H       
  62 H62           -1.1083    -6.8372    -1.4328 H       
  63 H63           -2.8064    -6.4563    -1.0591 H       
  64 H64           -1.1695    -8.4980    -5.8534 H       
  65 H65           -3.5633    -8.8409    -6.3070 H       
  66 H66           -5.2493    -8.0519    -4.6981 H       
  67 H67           -6.2706    -8.1462    -2.8686 H       
  68 H68           -6.7404    -6.6817    -1.9727 H       
  69 H69           -6.3446    -6.5767    -3.7049 H       
  70 H70            1.7569    -7.5920    -4.3893 H       
  71 H71            0.6128    -8.8839    -4.8258 H       
  72 H72            0.5465    -7.3154    -5.6647 H       
@<TRIPOS>BOND
   1    1    2 ar
   2    1   10 ar
   3    2    3 ar
   4    2   41 1
   5    3    4 ar
   6    3   42 1
   7    4    5 ar
   8    4   43 1
   9    5    6 ar
  10    5   10 ar
  11    6    7 ar
  12    6   44 1
  13    7    8 ar
  14    7   45 1
  15    8    9 ar
  16    8   46 1
  17    9   10 ar
  18    9   11 1
  19   11   12 2
  20   11   13 2
  21   11   14 am
  22   14   15 1
  23   14   47 1
  24   15   16 ar
  25   15   20 ar
  26   16   17 ar
  27   16   48 1
  28   17   18 ar
  29   17   49 1
  30   18   19 ar
  31   18   21 1
  32   19   20 ar
  33   19   50 1
  34   20   51 1
  35   21   22 2
  36   21   23 am
  37   23   24 1
  38   23   29 1
  39   24   25 1
  40   24   52 1
  41   24   53 1
  42   25   26 1
  43   25   54 1
  44   25   55 1
  45   26   27 1
  46   26   30 1
  47   27   28 1
  48   27   56 1
  49   27   57 1
  50   28   29 1
  51   28   58 1
  52   28   59 1
  53   29   60 1
  54   29   61 1
  55   30   31 1
  56   30   62 1
  57   30   63 1
  58   31   32 ar
  59   31   36 ar
  60   32   33 ar
  61   32   39 1
  62   33   34 ar
  63   33   64 1
  64   34   35 ar
  65   34   65 1
  66   35   36 ar
  67   35   66 1
  68   36   37 1
  69   37   38 1
  70   38   67 1
  71   38   68 1
  72   38   69 1
  73   39   40 1
  74   40   70 1
  75   40   71 1
  76   40   72 1

#	End of record

