#	Name: ASD00120017
#	Creating user name:	WinNT
#	Creation time:	15. 06. 2019 18:31

#	Modifying user name:	WinNT
#	Modification time:	15. 06. 2019 18:31

#	Program:	/corina/corina34_cracker 3.40 0067  02.08.2006

@<TRIPOS>MOLECULE
ASD00120017
  24   24    0    0    0
SMALL
NO_CHARGES


@<TRIPOS>ATOM
   1 Cl1            2.2799    -1.9456     3.5528 Cl      
   2 N2             0.1192     1.3971     0.3678 N.2     
   3 N3             1.1313     3.3429    -0.3504 N.2     
   4 N4             2.3987     1.3641    -0.1468 N.pl3   
   5 N5             0.5646     3.8203     1.8558 N.pl3   
   6 N6             0.5686     5.5286     0.2176 N.pl3   
   7 C7             0.2130     0.1047     0.8042 C.ar    
   8 C8             1.0951    -0.2252     1.8357 C.ar    
   9 C9            -0.5775    -0.8910     0.2243 C.ar    
  10 C10            1.1840    -1.5323     2.2714 C.ar    
  11 C11           -0.4785    -2.1926     0.6694 C.ar    
  12 C12            0.4011    -2.5142     1.6880 C.ar    
  13 C13            1.1998     2.0361    -0.0397 C.2     
  14 C14            0.7591     4.2205     0.5638 C.2     
  15 H15            2.4276     0.4019    -0.0278 H       
  16 H16            3.2133     1.8535    -0.3412 H       
  17 H17            0.6412     2.8820     2.0897 H       
  18 H18            0.3498     4.4745     2.5391 H       
  19 H19            0.7067     5.8127    -0.6995 H       
  20 H20            0.2953     6.1731     0.8890 H       
  21 H21            1.7063     0.5400     2.2909 H       
  22 H22           -1.2649    -0.6418    -0.5706 H       
  23 H23           -1.0891    -2.9628     0.2217 H       
  24 H24            0.4744    -3.5352     2.0325 H       
@<TRIPOS>BOND
   1    1   10 1
   2    2    7 1
   3    2   13 2
   4    3   13 1
   5    3   14 2
   6    4   13 1
   7    4   15 1
   8    4   16 1
   9    5   14 1
  10    5   17 1
  11    5   18 1
  12    6   14 1
  13    6   19 1
  14    6   20 1
  15    7    8 ar
  16    7    9 ar
  17    8   10 ar
  18    8   21 1
  19    9   11 ar
  20    9   22 1
  21   10   12 ar
  22   11   12 ar
  23   11   23 1
  24   12   24 1

#	End of record

