#	Name: ASD02038613
#	Creating user name:	WinNT
#	Creation time:	15. 06. 2019 20:17

#	Modifying user name:	WinNT
#	Modification time:	15. 06. 2019 20:17

#	Program:	/corina/corina34_cracker 3.40 0067  02.08.2006

@<TRIPOS>MOLECULE
ASD02038613
  58   59    0    0    0
SMALL
NO_CHARGES


@<TRIPOS>ATOM
   1 C1            -0.3543     2.1205    -1.1196 C.ar    
   2 C2            -0.2325     0.7422    -1.0656 C.ar    
   3 C3            -1.3580    -0.0467    -0.9178 C.ar    
   4 C4            -2.6109     0.5445    -0.8236 C.ar    
   5 C5            -2.7295     1.9276    -0.8782 C.ar    
   6 C6            -1.6016     2.7115    -1.0206 C.ar    
   7 N7            -3.7504    -0.2504    -0.6747 N.pl3   
   8 C8            -5.0717     0.3747    -0.5754 C.3     
   9 C9            -6.1389    -0.7106    -0.4197 C.3     
  10 N10           -6.0268    -1.6675    -1.5233 N.am    
  11 C11           -6.4722    -2.9301    -1.3682 C.2     
  12 C12           -6.3569    -3.9145    -2.5034 C.3     
  13 O13           -6.8941    -5.1749    -2.0974 O.3     
  14 C14           -6.8668    -6.1812    -3.0118 C.ar    
  15 Cl15           1.0607     3.1089    -1.3046 Cl      
  16 C16           -7.3720    -7.4304    -2.6831 C.ar    
  17 C17           -6.3390    -5.9561    -4.2746 C.ar    
  18 C18           -6.3113    -6.9773    -5.2040 C.ar    
  19 C19           -6.8117    -8.2298    -4.8738 C.ar    
  20 C20           -7.3447    -8.4528    -3.6112 C.ar    
  21 N21           -6.7841    -9.2651    -5.8150 N.am    
  22 S22           -5.3574   -10.0308    -6.1619 S.o2    
  23 O23           -5.7124   -11.0141    -7.1244 O.2     
  24 O24           -6.9657    -3.2740    -0.3151 O.2     
  25 Cl25           1.3345     0.0045    -1.1841 Cl      
  26 O26           -4.4635    -8.9755    -6.4883 O.2     
  27 C27           -4.8730   -10.8150    -4.5996 C.3     
  28 C28           -7.5270    -0.0676    -0.4412 C.3     
  29 C29           -8.5876    -1.1342    -0.1612 C.3     
  30 C30           -9.9757    -0.4912    -0.1827 C.3     
  31 C31          -11.0363    -1.5579     0.0972 C.3     
  32 H32           -1.2630    -1.1217    -0.8761 H       
  33 H33           -3.7030     2.3896    -0.8054 H       
  34 H34           -1.6938     3.7868    -1.0626 H       
  35 H35           -3.6667    -1.2160    -0.6370 H       
  36 H36           -5.0967     1.0358     0.2909 H       
  37 H37           -5.2694     0.9518    -1.4787 H       
  38 H38           -5.9936    -1.2298     0.5276 H       
  39 H39           -5.6321    -1.3925    -2.3656 H       
  40 H40           -6.9128    -3.5431    -3.3643 H       
  41 H41           -5.3080    -4.0366    -2.7734 H       
  42 H42           -7.7865    -7.6037    -1.7010 H       
  43 H43           -5.9498    -4.9819    -4.5312 H       
  44 H44           -5.9009    -6.8016    -6.1874 H       
  45 H45           -7.7341    -9.4267    -3.3535 H       
  46 H46           -7.6007    -9.5341    -6.2641 H       
  47 H47           -5.6851   -11.4494    -4.2443 H       
  48 H48           -3.9812   -11.4214    -4.7585 H       
  49 H49           -4.6615   -10.0456    -3.8571 H       
  50 H50           -7.5804     0.7073     0.3235 H       
  51 H51           -7.7071     0.3755    -1.4207 H       
  52 H52           -8.5342    -1.9092    -0.9259 H       
  53 H53           -8.4075    -1.5773     0.8182 H       
  54 H54          -10.0291     0.2837     0.5820 H       
  55 H55          -10.1558    -0.0482    -1.1622 H       
  56 H56          -12.0252    -1.0998     0.0819 H       
  57 H57          -10.9829    -2.3328    -0.6675 H       
  58 H58          -10.8562    -2.0010     1.0767 H       
@<TRIPOS>BOND
   1    1    2 ar
   2    1   15 1
   3    1    6 ar
   4    2    3 ar
   5    2   25 1
   6    3    4 ar
   7    3   32 1
   8    4    5 ar
   9    4    7 1
  10    5    6 ar
  11    5   33 1
  12    6   34 1
  13    7    8 1
  14    7   35 1
  15    8    9 1
  16    8   36 1
  17    8   37 1
  18    9   10 1
  19    9   28 1
  20    9   38 1
  21   10   11 am
  22   10   39 1
  23   11   12 1
  24   11   24 2
  25   12   13 1
  26   12   40 1
  27   12   41 1
  28   13   14 1
  29   14   16 ar
  30   14   17 ar
  31   16   20 ar
  32   16   42 1
  33   17   18 ar
  34   17   43 1
  35   18   19 ar
  36   18   44 1
  37   19   20 ar
  38   19   21 1
  39   20   45 1
  40   21   22 am
  41   21   46 1
  42   22   23 2
  43   22   26 2
  44   22   27 1
  45   27   47 1
  46   27   48 1
  47   27   49 1
  48   28   29 1
  49   28   50 1
  50   28   51 1
  51   29   30 1
  52   29   52 1
  53   29   53 1
  54   30   31 1
  55   30   54 1
  56   30   55 1
  57   31   56 1
  58   31   57 1
  59   31   58 1

#	End of record

