#	Name: ASD01028694
#	Creating user name:	WinNT
#	Creation time:	15. 06. 2019 18:57

#	Modifying user name:	WinNT
#	Modification time:	15. 06. 2019 18:57

#	Program:	/corina/corina34_cracker 3.40 0067  02.08.2006

@<TRIPOS>MOLECULE
ASD01028694
  36   38    0    0    0
SMALL
NO_CHARGES


@<TRIPOS>ATOM
   1 C1            -0.0184     1.5028     0.0103 C.2     
   2 C2             0.0249     0.0012    -0.1095 C.3     
   3 C3             0.4789    -0.6037     1.2205 C.3     
   4 N4            -5.1159    -1.9044    -1.3500 N.ar    
   5 C5            -5.3377    -2.5801    -2.4512 C.ar    
   6 C6            -4.3180    -2.8569    -3.3595 C.ar    
   7 C7            -3.0478    -2.4202    -3.1124 C.ar    
   8 C8            -2.8135    -1.6945    -1.9290 C.ar    
   9 C9            -1.5344    -1.2134    -1.6075 C.ar    
  10 C10           -1.3486    -0.5151    -0.4533 C.ar    
  11 C11           -2.4113    -0.2719     0.4140 C.ar    
  12 C12           -3.6642    -0.7240     0.1338 C.ar    
  13 C13           -3.8960    -1.4484    -1.0482 C.ar    
  14 C14            2.2301     2.2858    -0.7434 C.ar    
  15 C15            1.2276     2.2613     0.2328 C.ar    
  16 C16            1.4271     2.9691     1.4233 C.ar    
  17 C17            2.6138     3.6654     1.5825 C.ar    
  18 C18            3.5561     3.6402     0.5700 C.ar    
  19 N19            3.3429     2.9645    -0.5434 N.ar    
  20 F20            2.0588     1.6043    -1.8973 F       
  21 Br21           2.9425     4.6416     3.1684 Br      
  22 N22           -1.1472     2.1272    -0.0872 N.2     
  23 O23           -1.1753     3.5429    -0.0888 O.3     
  24 H24            0.7261    -0.2806    -0.8950 H       
  25 H25            0.5102    -1.6898     1.1338 H       
  26 H26            1.4723    -0.2303     1.4691 H       
  27 H27           -0.2223    -0.3220     2.0060 H       
  28 H28           -6.3373    -2.9318    -2.6598 H       
  29 H29           -4.5318    -3.4168    -4.2580 H       
  30 H30           -2.2454    -2.6261    -3.8053 H       
  31 H31           -0.7026    -1.3959    -2.2718 H       
  32 H32           -2.2382     0.2839     1.3237 H       
  33 H33           -4.4770    -0.5271     0.8171 H       
  34 H34            0.6747     2.9726     2.1981 H       
  35 H35            4.4817     4.1829     0.6926 H       
  36 H36           -2.0630     3.9186    -0.1655 H       
@<TRIPOS>BOND
   1    1    2 1
   2    1   15 1
   3    1   22 2
   4    2    3 1
   5    2   10 1
   6    2   24 1
   7    3   25 1
   8    3   26 1
   9    3   27 1
  10    4    5 ar
  11    4   13 ar
  12    5    6 ar
  13    5   28 1
  14    6    7 ar
  15    6   29 1
  16    7    8 ar
  17    7   30 1
  18    8    9 ar
  19    8   13 ar
  20    9   10 ar
  21    9   31 1
  22   10   11 ar
  23   11   12 ar
  24   11   32 1
  25   12   13 ar
  26   12   33 1
  27   14   15 ar
  28   14   19 ar
  29   14   20 1
  30   15   16 ar
  31   16   17 ar
  32   16   34 1
  33   17   18 ar
  34   17   21 1
  35   18   19 ar
  36   18   35 1
  37   22   23 1
  38   23   36 1

#	End of record

