#	Name: ASD03740051
#	Creating user name:	WinNT
#	Creation time:	15. 06. 2019 20:46

#	Modifying user name:	WinNT
#	Modification time:	15. 06. 2019 20:46

#	Program:	/corina/corina34_cracker 3.40 0067  02.08.2006

@<TRIPOS>MOLECULE
ASD03740051
  55   57    0    0    0
SMALL
NO_CHARGES


@<TRIPOS>ATOM
   1 Cl1            0.0000     0.0000     0.0000 Cl      
   2 H2             0.0000     1.3700     0.0000 H       
   3 C3             5.9454    11.4905    10.1141 C.ar    
   4 C4             5.9642    10.1011    10.1064 C.ar    
   5 C5             7.1468     9.4177    10.0919 C.ar    
   6 C6             8.3516    10.1169    10.0842 C.ar    
   7 C7             8.3340    11.5247    10.0915 C.ar    
   8 C8             7.1104    12.2017    10.1068 C.ar    
   9 N9             9.6684     9.7374    10.0700 N.pl3   
  10 N10           10.4755    10.8797    10.0682 N.2     
  11 C11            9.7325    11.9527    10.0806 C.2     
  12 C12           10.1535     8.3551    10.0589 C.3     
  13 C13           10.3064     7.8878     8.6344 C.ar    
  14 C14           11.5061     8.0699     7.9723 C.ar    
  15 C15           11.6464     7.6413     6.6656 C.ar    
  16 C16           10.5871     7.0301     6.0211 C.ar    
  17 C17            9.3877     6.8472     6.6836 C.ar    
  18 C18            9.2488     7.2719     7.9917 C.ar    
  19 O19           10.1783    13.2369    10.0825 O.3     
  20 C20           11.5938    13.4323    10.0703 C.3     
  21 C21           11.9018    14.9309    10.0745 C.3     
  22 C22           13.4174    15.1401    10.0615 C.3     
  23 N23           13.7132    16.5790    10.0655 N.3     
  24 C24           15.1437    16.8216    10.2916 C.3     
  25 C25           15.4384    18.3162    10.1449 C.3     
  26 C26           14.6022    19.0984    11.1614 C.3     
  27 C27           13.1194    18.7906    10.9355 C.3     
  28 C28           12.8919    17.2823    11.0592 C.3     
  29 H29            5.0000    12.0126    10.1214 H       
  30 H30            5.0325     9.5549    10.1124 H       
  31 H31            7.1477     8.3377    10.0868 H       
  32 H32            7.0874    13.2814    10.1121 H       
  33 H33           11.1184     8.3046    10.5635 H       
  34 H34            9.4389     7.7151    10.5765 H       
  35 H35           12.3337     8.5474     8.4757 H       
  36 H36           12.5835     7.7843     6.1480 H       
  37 H37           10.6965     6.6959     5.0000 H       
  38 H38            8.5600     6.3700     6.1800 H       
  39 H39            8.3117     7.1290     8.5093 H       
  40 H40           12.0322    12.9688    10.9541 H       
  41 H41           12.0157    12.9771     9.1743 H       
  42 H42           11.4635    15.3944     9.1907 H       
  43 H43           11.4799    15.3861    10.9706 H       
  44 H44           13.8558    14.6766    10.9453 H       
  45 H45           13.8393    14.6850     9.1655 H       
  46 H46           15.4132    16.4951    11.2960 H       
  47 H47           15.7269    16.2629     9.5595 H       
  48 H48           16.4974    18.4979    10.3281 H       
  49 H49           15.1821    18.6404     9.1363 H       
  50 H50           14.8859    18.8024    12.1714 H       
  51 H51           14.7764    20.1666    11.0315 H       
  52 H52           12.5215    19.3114    11.6834 H       
  53 H53           12.8265    19.1223     9.9393 H       
  54 H54           11.8395    17.0582    10.8847 H       
  55 H55           13.1719    16.9537    12.0600 H       
@<TRIPOS>BOND
   1    1    2 1
   2    3    4 ar
   3    3    8 ar
   4    3   29 1
   5    4    5 ar
   6    4   30 1
   7    5    6 ar
   8    5   31 1
   9    6    7 ar
  10    6    9 1
  11    7    8 ar
  12    7   11 1
  13    8   32 1
  14    9   10 1
  15    9   12 1
  16   10   11 2
  17   11   19 1
  18   12   13 1
  19   12   33 1
  20   12   34 1
  21   13   14 ar
  22   13   18 ar
  23   14   15 ar
  24   14   35 1
  25   15   16 ar
  26   15   36 1
  27   16   17 ar
  28   16   37 1
  29   17   18 ar
  30   17   38 1
  31   18   39 1
  32   19   20 1
  33   20   21 1
  34   20   40 1
  35   20   41 1
  36   21   22 1
  37   21   42 1
  38   21   43 1
  39   22   23 1
  40   22   44 1
  41   22   45 1
  42   23   24 1
  43   23   28 1
  44   24   25 1
  45   24   46 1
  46   24   47 1
  47   25   26 1
  48   25   48 1
  49   25   49 1
  50   26   27 1
  51   26   50 1
  52   26   51 1
  53   27   28 1
  54   27   52 1
  55   27   53 1
  56   28   54 1
  57   28   55 1

#	End of record

