#	Name: ASD01870618
#	Creating user name:	WinNT
#	Creation time:	15. 06. 2019 19:39

#	Modifying user name:	WinNT
#	Modification time:	15. 06. 2019 19:39

#	Program:	/corina/corina34_cracker 3.40 0067  02.08.2006

@<TRIPOS>MOLECULE
ASD01870618
  38   41    0    0    0
SMALL
NO_CHARGES


@<TRIPOS>ATOM
   1 C1             0.0068     1.3669    -0.0391 C.ar    
   2 C2             0.0303    -0.0227    -0.0500 C.ar    
   3 C3             1.2326    -0.7019    -0.0596 C.ar    
   4 C4             2.4335    -0.0080    -0.0584 C.ar    
   5 C5             2.4282     1.3769    -0.0480 C.ar    
   6 C6             1.2018     2.0739    -0.0382 C.ar    
   7 C7             3.4814     2.4134    -0.0438 C.2     
   8 N8             2.8919     3.6226    -0.0328 N.am    
   9 C9             1.5517     3.5076    -0.0280 C.2     
  10 C10            3.5795     4.8351    -0.0259 C.ar    
  11 N11            2.8914     5.9654    -0.0151 N.ar    
  12 C12            3.5089     7.1348    -0.0083 C.ar    
  13 C13            4.9008     7.1653    -0.0125 C.ar    
  14 C14            5.5893     5.9553    -0.0238 C.ar    
  15 N15            4.9028     4.8249    -0.0248 N.ar    
  16 O16            0.7613     4.4299    -0.0180 O.2     
  17 O17            4.6784     2.2080    -0.0490 O.2     
  18 N18            5.5916     8.3835    -0.0060 N.am    
  19 C19            6.7619     8.4911     0.6537 C.2     
  20 C20            7.5434     9.7284     0.5634 C.2     
  21 O21            7.1701     7.5610     1.3244 O.2     
  22 C22            8.7390     9.9690     1.1778 C.2     
  23 C23            9.1235    11.2699     0.8171 C.2     
  24 C24            8.1581    11.7602     0.0086 C.2     
  25 O25            7.2102    10.8266    -0.1459 O.3     
  26 C26            9.4983     9.0217     2.0706 C.3     
  27 F27           -1.1725     2.0261    -0.0349 F       
  28 H28           -0.8978    -0.5750    -0.0506 H       
  29 H29            1.2378    -1.7818    -0.0676 H       
  30 H30            3.3700    -0.5460    -0.0652 H       
  31 H31            2.9413     8.0536     0.0001 H       
  32 H32            6.6691     5.9399    -0.0274 H       
  33 H33            5.2277     9.1499    -0.4763 H       
  34 H34           10.0218    11.7827     1.1276 H       
  35 H35            8.1535    12.7417    -0.4420 H       
  36 H36           10.1774     8.4193     1.4671 H       
  37 H37           10.0710     9.5919     2.8020 H       
  38 H38            8.7958     8.3686     2.5883 H       
@<TRIPOS>BOND
   1    1    2 ar
   2    1    6 ar
   3    1   27 1
   4    2    3 ar
   5    2   28 1
   6    3    4 ar
   7    3   29 1
   8    4    5 ar
   9    4   30 1
  10    5    7 1
  11    5    6 ar
  12    6    9 1
  13    7    8 am
  14    7   17 2
  15    8    9 am
  16    8   10 1
  17    9   16 2
  18   10   11 ar
  19   10   15 ar
  20   11   12 ar
  21   12   13 ar
  22   12   31 1
  23   13   14 ar
  24   13   18 1
  25   14   15 ar
  26   14   32 1
  27   18   19 am
  28   18   33 1
  29   19   20 1
  30   19   21 2
  31   20   22 2
  32   20   25 1
  33   22   23 1
  34   22   26 1
  35   23   24 2
  36   23   34 1
  37   24   25 1
  38   24   35 1
  39   26   36 1
  40   26   37 1
  41   26   38 1

#	End of record

