#	Name: ASD01840423
#	Creating user name:	WinNT
#	Creation time:	15. 06. 2019 19:37

#	Modifying user name:	WinNT
#	Modification time:	15. 06. 2019 19:37

#	Program:	/corina/corina34_cracker 3.40 0067  02.08.2006

@<TRIPOS>MOLECULE
ASD01840423
  49   51    0    0    0
SMALL
NO_CHARGES


@<TRIPOS>ATOM
   1 C1             0.2611     1.7552    -0.9980 C.ar    
   2 C2             0.3841     0.5320    -1.6195 C.ar    
   3 N3             1.4990    -0.1677    -1.4965 N.ar    
   4 N4             2.4999     0.2427    -0.8111 N.ar    
   5 C5             1.3546     2.2267    -0.2364 C.ar    
   6 C6             1.5104     3.4570     0.5171 C.2     
   7 C7             2.4928     1.4121    -0.1670 C.ar    
   8 S8             3.7250     2.1824     0.8223 S.3     
   9 C9             2.7118     3.5783     1.1344 C.2     
  10 C10           -0.9999     2.5697    -1.1313 C.3     
  11 C11           -0.7562    -0.0106    -2.4419 C.3     
  12 N12            0.5179     4.4243     0.5985 N.pl3   
  13 C13            3.1102     4.7236     1.9514 C.2     
  14 O14            2.3404     5.6527     2.1138 O.2     
  15 N15            4.3297     4.7507     2.5248 N.am    
  16 C16            4.7288     5.8982     3.3434 C.3     
  17 C17            6.1266     5.6821     3.8637 C.ar    
  18 C18            7.2121     6.1222     3.1291 C.ar    
  19 C19            8.4944     5.9254     3.6038 C.ar    
  20 C20            8.6924     5.2855     4.8187 C.ar    
  21 C21            7.6016     4.8448     5.5539 C.ar    
  22 C22            6.3211     5.0491     5.0774 C.ar    
  23 O23            9.9529     5.0902     5.2877 O.3     
  24 C24           10.0813     4.4244     6.5455 C.3     
  25 C25           11.5627     4.2966     6.9061 C.3     
  26 O26           12.1175     5.5978     7.1089 O.3     
  27 C27           13.5046     5.5912     7.4522 C.3     
  28 H28           -1.6441     2.3852    -0.2716 H       
  29 H29           -0.7456     3.6287    -1.1742 H       
  30 H30           -1.5220     2.2841    -2.0445 H       
  31 H31           -0.6493     0.3210    -3.4747 H       
  32 H32           -0.7433    -1.1000    -2.4068 H       
  33 H33           -1.7008     0.3547    -2.0389 H       
  34 H34           -0.4028     4.1923     0.4002 H       
  35 H35            0.7452     5.3322     0.8537 H       
  36 H36            4.9430     4.0104     2.3954 H       
  37 H37            4.7027     6.8036     2.7371 H       
  38 H38            4.0410     6.0027     4.1824 H       
  39 H39            7.0575     6.6200     2.1832 H       
  40 H40            9.3421     6.2690     3.0295 H       
  41 H41            7.7531     4.3464     6.4999 H       
  42 H42            5.4713     4.7105     5.6516 H       
  43 H43            9.5682     5.0004     7.3156 H       
  44 H44            9.6368     3.4314     6.4780 H       
  45 H45           11.6650     3.7116     7.8201 H       
  46 H46           12.0925     3.7981     6.0944 H       
  47 H47           13.6472     5.0330     8.3775 H       
  48 H48           14.0748     5.1196     6.6518 H       
  49 H49           13.8499     6.6159     7.5892 H       
@<TRIPOS>BOND
   1    1    2 ar
   2    1    5 ar
   3    1   10 1
   4    2   11 1
   5    2    3 ar
   6    3    4 ar
   7    4    7 ar
   8    5    7 ar
   9    5    6 1
  10    6    9 2
  11    6   12 1
  12    7    8 1
  13    8    9 1
  14    9   13 1
  15   10   28 1
  16   10   29 1
  17   10   30 1
  18   11   31 1
  19   11   32 1
  20   11   33 1
  21   12   34 1
  22   12   35 1
  23   13   14 2
  24   13   15 am
  25   15   16 1
  26   15   36 1
  27   16   17 1
  28   16   37 1
  29   16   38 1
  30   17   18 ar
  31   17   22 ar
  32   18   19 ar
  33   18   39 1
  34   19   20 ar
  35   19   40 1
  36   20   21 ar
  37   20   23 1
  38   21   22 ar
  39   21   41 1
  40   22   42 1
  41   23   24 1
  42   24   25 1
  43   24   43 1
  44   24   44 1
  45   25   26 1
  46   25   45 1
  47   25   46 1
  48   26   27 1
  49   27   47 1
  50   27   48 1
  51   27   49 1

#	End of record

