#	Name: ASD05430552
#	Creating user name:	WinNT
#	Creation time:	15. 06. 2019 21:00

#	Modifying user name:	WinNT
#	Modification time:	15. 06. 2019 21:00

#	Program:	/corina/corina34_cracker 3.40 0067  02.08.2006

@<TRIPOS>MOLECULE
ASD05430552
  40   40    0    0    0
SMALL
NO_CHARGES


@<TRIPOS>ATOM
   1 C1             0.1141     1.6431     0.2165 C.ar    
   2 C2             0.3173     0.2706     0.2935 C.ar    
   3 C3             1.2261     2.4863     0.2610 C.ar    
   4 C4             2.4821     1.9187     0.3837 C.ar    
   5 C5             2.5993     0.5430     0.4584 C.ar    
   6 N6             1.5311    -0.2284     0.4119 N.ar    
   7 C7            -1.0393    -0.4033     0.2129 C.3     
   8 C8            -1.9518     0.7216    -0.3271 C.3     
   9 N9            -1.2475     1.9470     0.1099 N.3     
  10 C10           -1.4686     3.0475    -0.8377 C.3     
  11 C11           -0.8611     2.6829    -2.1937 C.3     
  12 C12           -2.9711     3.2869    -0.9997 C.3     
  13 H13            1.1085     3.5581     0.2006 H       
  14 H14            3.3620     2.5439     0.4203 H       
  15 H15            3.5773     0.0951     0.5556 H       
  16 H16           -1.0119    -1.2440    -0.4804 H       
  17 H17           -1.3687    -0.7267     1.2003 H       
  18 H18           -2.0157     0.6793    -1.4144 H       
  19 H19           -2.9432     0.6645     0.1222 H       
  20 H20           -0.9951     3.9535    -0.4592 H       
  21 H21           -1.3249     1.7693    -2.5657 H       
  22 H22           -1.0373     3.4936    -2.9006 H       
  23 H23            0.2116     2.5258    -2.0809 H       
  24 H24           -3.4257     3.4200    -0.0180 H       
  25 H25           -3.1337     4.1821    -1.5998 H       
  26 H26           -3.4241     2.4291    -1.4966 H       
  27 C27            9.5791    12.3087     8.3506 C.3     
  28 C28            9.5999    10.7789     8.3422 C.3     
  29 C29           10.3160    10.2854     7.0834 C.3     
  30 C30           10.3399    10.2720     9.5817 C.3     
  31 H31           10.6017    12.6860     8.3428 H       
  32 H32            9.0519    12.6698     7.4675 H       
  33 H33            9.0689    12.6602     9.2474 H       
  34 H34            8.5773    10.4016     8.3499 H       
  35 H35           11.3386    10.6627     7.0756 H       
  36 H36           10.3308     9.1956     7.0774 H       
  37 H37            9.7888    10.6465     6.2003 H       
  38 H38            9.8297    10.6235    10.4785 H       
  39 H39           10.3546     9.1821     9.5757 H       
  40 H40           11.3624    10.6493     9.5739 H       
@<TRIPOS>BOND
   1    1    2 ar
   2    1    3 ar
   3    1    9 1
   4    2    7 1
   5    2    6 ar
   6    3    4 ar
   7    3   13 1
   8    4    5 ar
   9    4   14 1
  10    5    6 ar
  11    5   15 1
  12    7    8 1
  13    7   16 1
  14    7   17 1
  15    8    9 1
  16    8   18 1
  17    8   19 1
  18    9   10 1
  19   10   11 1
  20   10   12 1
  21   10   20 1
  22   11   21 1
  23   11   22 1
  24   11   23 1
  25   12   24 1
  26   12   25 1
  27   12   26 1
  28   27   28 1
  29   27   31 1
  30   27   32 1
  31   27   33 1
  32   28   29 1
  33   28   30 1
  34   28   34 1
  35   29   35 1
  36   29   36 1
  37   29   37 1
  38   30   38 1
  39   30   39 1
  40   30   40 1

#	End of record

