#	Name: ASD04881218
#	Creating user name:	WinNT
#	Creation time:	15. 06. 2019 20:53

#	Modifying user name:	WinNT
#	Modification time:	15. 06. 2019 20:53

#	Program:	/corina/corina34_cracker 3.40 0067  02.08.2006

@<TRIPOS>MOLECULE
ASD04881218
  72   76    0    0    0
SMALL
NO_CHARGES


@<TRIPOS>ATOM
   1 C1             0.4820     1.1113    -0.5497 C.2     
   2 C2             1.7013     1.6830    -0.7763 C.2     
   3 C3             2.0758     3.0661    -0.4652 C.2     
   4 O4             1.2634     3.8169     0.0426 O.2     
   5 O5             2.5011     0.7521    -1.3367 O.3     
   6 C6             1.8219    -0.3945    -1.4716 C.2     
   7 C7             0.5692    -0.2162    -0.9974 C.2     
   8 N8             3.3194     3.5060    -0.7414 N.am    
   9 C9             3.6439     4.8552    -0.5493 C.ar    
  10 C10            4.9380     5.2151    -0.1613 C.ar    
  11 C11            5.2614     6.5532     0.0292 C.ar    
  12 C12            4.3088     7.5296    -0.1635 C.ar    
  13 C13            3.0136     7.1768    -0.5513 C.ar    
  14 C14            2.6870     5.8318    -0.7487 C.ar    
  15 C15            1.9935     8.2225    -0.7570 C.2     
  16 O16            0.8666     7.9145    -1.0945 O.2     
  17 N17            2.3106     9.5191    -0.5709 N.am    
  18 N18            5.9039     4.2315     0.0350 N.3     
  19 C19            5.5731     3.3927     1.1955 C.3     
  20 C20            6.6136     2.2783     1.3292 C.3     
  21 N21            7.9490     2.8736     1.4769 N.3     
  22 C22            8.2798     3.7124     0.3164 C.3     
  23 C23            7.2393     4.8268     0.1827 C.3     
  24 C24            8.9144     1.8906     1.6731 C.ar    
  25 C25            9.8906     1.6434     0.7078 C.ar    
  26 C26           10.8291     0.6607     0.9405 C.ar    
  27 N27           10.8110    -0.0414     2.0583 N.ar    
  28 C28            9.9042     0.1622     2.9954 C.ar    
  29 C29            8.9345     1.1309     2.8424 C.ar    
  30 C30            2.3653    -1.6727    -2.0564 C.3     
  31 C31            1.2976    10.5576    -0.7752 C.3     
  32 C32            1.9127    11.9312    -0.5002 C.3     
  33 C33            0.8707    12.9994    -0.7103 C.2     
  34 C34            0.5036    13.9343     0.1868 C.2     
  35 N35           -0.4641    14.6970    -0.4095 N.pl3   
  36 C36           -0.6548    14.2013    -1.6510 C.2     
  37 N37            0.1504    13.1893    -1.8258 N.2     
  38 C38           -1.1625    15.8379     0.1878 C.3     
  39 C39            7.9070     1.3606     3.9206 C.3     
  40 H40           -0.3808     1.5871    -0.1074 H       
  41 H41           -0.2170    -0.9560    -0.9680 H       
  42 H42            3.9897     2.8884    -1.0733 H       
  43 H43            6.2618     6.8283     0.3293 H       
  44 H44            4.5632     8.5685    -0.0143 H       
  45 H45            1.6879     5.5564    -1.0528 H       
  46 H46            3.2095     9.7648    -0.3017 H       
  47 H47            5.5762     4.0034     2.0983 H       
  48 H48            4.5853     2.9532     1.0567 H       
  49 H49            6.3866     1.6722     2.2062 H       
  50 H50            6.5915     1.6513     0.4378 H       
  51 H51            9.2676     4.1519     0.4552 H       
  52 H52            8.2767     3.1017    -0.5864 H       
  53 H53            7.4663     5.4330    -0.6943 H       
  54 H54            7.2614     5.4538     1.0741 H       
  55 H55            9.9107     2.2137    -0.2092 H       
  56 H56           11.5887     0.4625     0.1987 H       
  57 H57            9.9244    -0.4344     3.8954 H       
  58 H58            3.4028    -1.5233    -2.3554 H       
  59 H59            2.3128    -2.4650    -1.3097 H       
  60 H60            1.7732    -1.9543    -2.9272 H       
  61 H61            0.9401    10.5190    -1.8042 H       
  62 H62            0.4632    10.3901    -0.0942 H       
  63 H63            2.2702    11.9698     0.5288 H       
  64 H64            2.7471    12.0986    -1.1812 H       
  65 H65            0.8969    14.0582     1.1850 H       
  66 H66           -1.3549    14.5818    -2.3801 H       
  67 H67           -0.6126    16.7540    -0.0279 H       
  68 H68           -2.1662    15.9095    -0.2312 H       
  69 H69           -1.2283    15.6993     1.2669 H       
  70 H70            7.0748     0.6704     3.7824 H       
  71 H71            8.3610     1.1914     4.8970 H       
  72 H72            7.5422     2.3861     3.8623 H       
@<TRIPOS>BOND
   1    1    7 1
   2    1    2 2
   3    1   40 1
   4    2    3 1
   5    2    5 1
   6    3    4 2
   7    3    8 am
   8    5    6 1
   9    6    7 2
  10    6   30 1
  11    7   41 1
  12    8    9 1
  13    8   42 1
  14    9   10 ar
  15    9   14 ar
  16   10   11 ar
  17   10   18 1
  18   11   12 ar
  19   11   43 1
  20   12   13 ar
  21   12   44 1
  22   13   14 ar
  23   13   15 1
  24   14   45 1
  25   15   16 2
  26   15   17 am
  27   17   31 1
  28   17   46 1
  29   18   19 1
  30   18   23 1
  31   19   20 1
  32   19   47 1
  33   19   48 1
  34   20   21 1
  35   20   49 1
  36   20   50 1
  37   21   22 1
  38   21   24 1
  39   22   23 1
  40   22   51 1
  41   22   52 1
  42   23   53 1
  43   23   54 1
  44   24   25 ar
  45   24   29 ar
  46   25   26 ar
  47   25   55 1
  48   26   27 ar
  49   26   56 1
  50   27   28 ar
  51   28   29 ar
  52   28   57 1
  53   29   39 1
  54   30   58 1
  55   30   59 1
  56   30   60 1
  57   31   32 1
  58   31   61 1
  59   31   62 1
  60   32   33 1
  61   32   63 1
  62   32   64 1
  63   33   34 2
  64   33   37 1
  65   34   35 1
  66   34   65 1
  67   35   36 1
  68   35   38 1
  69   36   37 2
  70   36   66 1
  71   38   67 1
  72   38   68 1
  73   38   69 1
  74   39   70 1
  75   39   71 1
  76   39   72 1

#	End of record

