#	Name: ASD07300670
#	Creating user name:	WinNT
#	Creation time:	15. 06. 2019 21:10

#	Modifying user name:	WinNT
#	Modification time:	15. 06. 2019 21:10

#	Program:	/corina/corina34_cracker 3.40 0067  02.08.2006

@<TRIPOS>MOLECULE
ASD07300670
  18   18    0    0    0
SMALL
NO_CHARGES


@<TRIPOS>ATOM
   1 C1            -0.0168     1.3870     0.0097 C.ar    
   2 C2             0.0021    -0.0041     0.0020 C.ar    
   3 C3             1.2217    -0.6609    -0.0131 C.ar    
   4 C4             2.3836     0.1007    -0.0201 C.ar    
   5 C5             2.2883     1.4786    -0.0118 C.ar    
   6 N6             1.1113     2.0759     0.0026 N.ar    
   7 F7            -1.1530    -0.7047     0.0097 F       
   8 O8            -1.2051     2.0432     0.0188 O.3     
   9 C9            -1.1576     3.4714     0.0264 C.3     
  10 C10           -2.5823     4.0291     0.0361 C.3     
  11 Cl11           3.9384    -0.6712    -0.0385 Cl      
  12 H12            1.2681    -1.7399    -0.0190 H       
  13 H13            3.1886     2.0752    -0.0172 H       
  14 H14           -0.6277     3.8126     0.9157 H       
  15 H15           -0.6361     3.8223    -0.8642 H       
  16 H16           -3.1037     3.6782     0.9267 H       
  17 H17           -2.5460     5.1184     0.0419 H       
  18 H18           -3.1121     3.6879    -0.8533 H       
@<TRIPOS>BOND
   1    1    2 ar
   2    1    6 ar
   3    1    8 1
   4    2    3 ar
   5    2    7 1
   6    3    4 ar
   7    3   12 1
   8    4    5 ar
   9    4   11 1
  10    5    6 ar
  11    5   13 1
  12    8    9 1
  13    9   10 1
  14    9   14 1
  15    9   15 1
  16   10   16 1
  17   10   17 1
  18   10   18 1

#	End of record

