#	Name: ASD01208705
#	Creating user name:	WinNT
#	Creation time:	15. 06. 2019 19:10

#	Modifying user name:	WinNT
#	Modification time:	15. 06. 2019 19:10

#	Program:	/corina/corina34_cracker 3.40 0067  02.08.2006

@<TRIPOS>MOLECULE
ASD01208705
  66   70    0    0    0
SMALL
NO_CHARGES


@<TRIPOS>ATOM
   1 C1            -0.5126     1.4587     1.4863 C.2     
   2 C2            -0.3529     0.1484     0.8208 C.ar    
   3 C3            -1.4370    -0.7252     0.7263 C.ar    
   4 C4            -1.2829    -1.9519     0.1020 C.ar    
   5 C5            -0.0524    -2.3128    -0.4288 C.ar    
   6 C6             1.0277    -1.4474    -0.3371 C.ar    
   7 C7             0.8807    -0.2160     0.2803 C.ar    
   8 O8             0.4329     2.2183     1.5676 O.2     
   9 N9            -1.7079     1.8134     1.9980 N.am    
  10 S10           -3.3116     3.6212     3.3143 S.3     
  11 C11           -1.8580     3.0445     2.6233 C.2     
  12 N12           -0.9161     3.9234     2.7683 N.2     
  13 C13           -1.2345     5.0434     3.3899 C.2     
  14 C14           -2.5059     5.1142     3.7891 C.2     
  15 O15            2.2306    -1.8059    -0.8581 O.3     
  16 C16            2.3099    -3.0875    -1.4854 C.3     
  17 N17            6.0640    -3.6160    -1.3272 N.3     
  18 C18            4.7035    -3.3787    -0.8281 C.3     
  19 C19            3.7304    -3.3128    -2.0073 C.3     
  20 C20            3.7866    -4.6314    -2.7835 C.3     
  21 C21            5.2237    -4.8787    -3.2507 C.3     
  22 C22            6.1536    -4.8993    -2.0354 C.3     
  23 O23           -2.3379    -2.8034     0.0094 O.3     
  24 C24           -3.1557    -2.6906    -1.0691 C.ar    
  25 C25           -2.8399    -1.8005    -2.0879 C.ar    
  26 C26           -3.6671    -1.6831    -3.1838 C.ar    
  27 C27           -4.8237    -2.4607    -3.2696 C.ar    
  28 C28           -5.1374    -3.3546    -2.2439 C.ar    
  29 C29           -4.3027    -3.4697    -1.1534 C.ar    
  30 O30           -6.8556    -3.0218    -4.6557 O.3     
  31 C31           -5.7137    -2.3376    -4.4428 C.2     
  32 N32           -5.5400    -1.5412    -5.4719 N.2     
  33 N33           -6.5112    -1.7008    -6.3005 N.2     
  34 C34           -7.3363    -2.5975    -5.8375 C.2     
  35 C35           -8.6008    -3.0724    -6.5058 C.3     
  36 C36           -9.5509    -1.8888    -6.6993 C.3     
  37 C37           -8.2603    -3.6809    -7.8677 C.3     
  38 H38           -2.3947    -0.4453     1.1398 H       
  39 H39            0.0646    -3.2704    -0.9144 H       
  40 H40            1.7210     0.4592     0.3470 H       
  41 H41           -2.4634     1.2088     1.9295 H       
  42 H42           -0.5237     5.8381     3.5616 H       
  43 H43           -2.9614     5.9422     4.3119 H       
  44 H44            2.0619    -3.8628    -0.7604 H       
  45 H45            1.6064    -3.1291    -2.3169 H       
  46 H46            6.3709    -2.8560    -1.9158 H       
  47 H47            4.4137    -4.1922    -0.1630 H       
  48 H48            4.6764    -2.4360    -0.2817 H       
  49 H49            4.0110    -2.4903    -2.6652 H       
  50 H50            3.4681    -5.4488    -2.1365 H       
  51 H51            3.1271    -4.5729    -3.6494 H       
  52 H52            5.2786    -5.8370    -3.7672 H       
  53 H53            5.5283    -4.0813    -3.9285 H       
  54 H54            7.1796    -5.0609    -2.3659 H       
  55 H55            5.8569    -5.7057    -1.3647 H       
  56 H56           -1.9451    -1.1994    -2.0207 H       
  57 H57           -3.4214    -0.9904    -3.9751 H       
  58 H58           -6.0314    -3.9574    -2.3065 H       
  59 H59           -4.5427    -4.1636    -0.3613 H       
  60 H60           -9.0811    -3.8255    -5.8812 H       
  61 H61           -9.0705    -1.1356    -7.3239 H       
  62 H62          -10.4654    -2.2322    -7.1827 H       
  63 H63           -9.7934    -1.4552    -5.7291 H       
  64 H64           -7.5834    -4.5241    -7.7299 H       
  65 H65           -9.1749    -4.0244    -8.3511 H       
  66 H66           -7.7800    -2.9277    -8.4923 H       
@<TRIPOS>BOND
   1    1    2 1
   2    1    8 2
   3    1    9 am
   4    2    3 ar
   5    2    7 ar
   6    3    4 ar
   7    3   38 1
   8    4    5 ar
   9    4   23 1
  10    5    6 ar
  11    5   39 1
  12    6    7 ar
  13    6   15 1
  14    7   40 1
  15    9   11 1
  16    9   41 1
  17   10   11 1
  18   10   14 1
  19   11   12 2
  20   12   13 1
  21   13   14 2
  22   13   42 1
  23   14   43 1
  24   15   16 1
  25   16   19 1
  26   16   44 1
  27   16   45 1
  28   17   18 1
  29   17   22 1
  30   17   46 1
  31   18   19 1
  32   18   47 1
  33   18   48 1
  34   19   20 1
  35   19   49 1
  36   20   21 1
  37   20   50 1
  38   20   51 1
  39   21   22 1
  40   21   52 1
  41   21   53 1
  42   22   54 1
  43   22   55 1
  44   23   24 1
  45   24   25 ar
  46   24   29 ar
  47   25   26 ar
  48   25   56 1
  49   26   27 ar
  50   26   57 1
  51   27   28 ar
  52   27   31 1
  53   28   29 ar
  54   28   58 1
  55   29   59 1
  56   30   31 1
  57   30   34 1
  58   31   32 2
  59   32   33 1
  60   33   34 2
  61   34   35 1
  62   35   36 1
  63   35   37 1
  64   35   60 1
  65   36   61 1
  66   36   62 1
  67   36   63 1
  68   37   64 1
  69   37   65 1
  70   37   66 1

#	End of record

