#	Name: ASD05143051
#	Creating user name:	WinNT
#	Creation time:	15. 06. 2019 20:57

#	Modifying user name:	WinNT
#	Modification time:	15. 06. 2019 20:57

#	Program:	/corina/corina34_cracker 3.40 0067  02.08.2006

@<TRIPOS>MOLECULE
ASD05143051
 145  149    0    0    0
SMALL
NO_CHARGES


@<TRIPOS>ATOM
   1 C1             2.7153     1.9109     0.8887 C.2     
   2 C2             3.7178     0.8000     1.0670 C.3     
   3 N3             3.1220     3.1242     0.4658 N.am    
   4 O4             1.5417     1.7117     1.1210 O.2     
   5 C5             2.1474     4.2042     0.2925 C.3     
   6 C6             1.0998     3.7848    -0.7406 C.3     
   7 C7             1.4701     4.4857     1.6090 C.2     
   8 C8             1.7822     3.5367    -2.0873 C.3     
   9 C9             0.7533     3.0143    -3.0920 C.3     
  10 N10            1.4269     2.6703    -4.3466 N.pl3   
  11 C11            0.7001     2.1765    -5.4041 C.2     
  12 N12            1.3323     1.8536    -6.5815 N.pl3   
  13 N13           -0.5881     2.0145    -5.2903 N.2     
  14 O14            1.5958     3.7109     2.5335 O.2     
  15 N15            0.7248     5.5986     1.7589 N.am    
  16 C16            0.1607     5.9307     3.0682 C.3     
  17 C17            1.1384     6.8627     3.7932 C.3     
  18 C18            1.2939     6.4185     5.2521 C.3     
  19 C19            2.3983     7.2170     5.8954 C.2     
  20 O20            3.4440     7.4079     5.3094 O.2     
  21 N21            2.2005     7.7247     7.1497 N.am    
  22 C22            3.3216     8.5248     7.6919 C.3     
  23 C23            2.7852     9.4435     8.7881 C.3     
  24 C24            2.4617    10.8161     8.1993 C.3     
  25 C25            1.7372    11.6684     9.2432 C.3     
  26 N26            1.0177    12.7580     8.5611 N.am    
  27 C27            2.7484    12.2613    10.1940 C.2     
  28 N28            3.2483    11.5141    11.1981 N.am    
  29 O29            3.1111    13.4102    10.0544 O.2     
  30 C30           -0.3365    12.8044     8.6919 C.2     
  31 O31           -0.9395    11.9074     9.2357 O.2     
  32 C32           -1.0723    14.0096     8.1620 C.3     
  33 N33           -2.4359    13.6178     7.7471 N.am    
  34 C34           -1.1601    15.0734     9.2610 C.3     
  35 C35           -2.5693    13.2043     6.4519 C.2     
  36 O36           -1.5824    13.0547     5.7543 O.2     
  37 C37           -3.9388    12.9673     5.8793 C.3     
  38 N38           -3.8418    12.2368     4.5986 N.am    
  39 C39           -4.8024    12.1803     6.8622 C.3     
  40 C40           -3.1171    11.0935     4.5916 C.2     
  41 O41           -2.5929    10.6825     5.6063 O.2     
  42 C42           -2.9162    10.2769     3.3301 C.3     
  43 C43           -1.7849    16.3248     8.7000 C.2     
  44 C44           -3.2177    16.6063     8.5830 C.ar    
  45 C45           -3.3167    17.8852     8.0058 C.ar    
  46 N46           -2.0330    18.3354     7.7932 N.pl3   
  47 C47           -1.1341    17.3953     8.2180 C.2     
  48 C48           -4.3757    15.8984     8.9112 C.ar    
  49 C49           -5.6009    16.4528     8.6695 C.ar    
  50 C50           -5.7039    17.7145     8.0995 C.ar    
  51 C51           -4.5746    18.4305     7.7688 C.ar    
  52 N52           -3.6818     9.0241     3.5078 N.am    
  53 C53           -1.4158    10.0193     3.1863 C.3     
  54 C54           -0.7066    11.3208     2.9141 C.ar    
  55 C55           -0.0913    11.9997     3.9509 C.ar    
  56 C56            0.5601    13.1914     3.7087 C.ar    
  57 C57            0.5976    13.7121     2.4137 C.ar    
  58 C58           -0.0254    13.0217     1.3721 C.ar    
  59 C59           -0.6687    11.8284     1.6275 C.ar    
  60 C60           -1.1699     6.6208     2.9384 C.2     
  61 O61           -1.6665     7.0907     3.9565 O.2     
  62 C62           -6.2242    12.0611     6.3097 C.3     
  63 C63           -7.0896    11.2725     7.2946 C.3     
  64 N64           -8.4510    11.1584     6.7656 N.pl3   
  65 C65           -9.4129    10.4867     7.4823 C.2     
  66 N66          -10.6905    10.3796     6.9858 N.pl3   
  67 N67           -9.1137     9.9515     8.6324 N.2     
  68 N68           -1.8504     6.7274     1.7875 N.am    
  69 C69           -2.7960     7.7874     1.4453 C.3     
  70 C70           -3.1866     5.8549    -0.0137 C.3     
  71 C71           -3.6126     7.3154     0.2226 C.3     
  72 C72           -3.7319     8.0468     2.5878 C.2     
  73 O73           -4.6680     7.2591     2.6979 O.2     
  74 C74           -1.8171     5.7662     0.6825 C.3     
  75 C75            1.2716    14.9488     2.1550 C.1     
  76 N76            1.8063    15.9299     1.9498 N.1     
  77 H77            4.4642     1.0988     1.8031 H       
  78 H78            3.2066    -0.0988     1.4122 H       
  79 H79            4.2077     0.5963     0.1149 H       
  80 H80            4.0601     3.2824     0.2762 H       
  81 H81            2.6586     5.1029    -0.0527 H       
  82 H82            0.6079     2.8704    -0.4087 H       
  83 H83            0.3590     4.5770    -0.8492 H       
  84 H84            2.2087     4.4697    -2.4559 H       
  85 H85            2.5751     2.7992    -1.9625 H       
  86 H86            0.2667     2.1276    -2.6858 H       
  87 H87            0.0058     3.7849    -3.2804 H       
  88 H88            2.3857     2.7909    -4.4313 H       
  89 H89            2.2910     1.9742    -6.6662 H       
  90 H90            0.8195     1.5053    -7.3276 H       
  91 H91           -1.1009     1.6661    -6.0364 H       
  92 H92            0.5622     6.1794     0.9993 H       
  93 H93            0.0436     5.0189     3.6566 H       
  94 H94            2.1067     6.8223     3.2968 H       
  95 H95            0.7559     7.8823     3.7599 H       
  96 H96            0.3596     6.5974     5.7845 H       
  97 H97            1.5412     5.3592     5.2907 H       
  98 H98            1.3849     7.5720     7.6513 H       
  99 H99            4.0761     7.8572     8.1110 H       
 100 H100           3.7639     9.1232     6.8956 H       
 101 H101           1.8794     9.0091     9.2141 H       
 102 H102           3.5385     9.5485     9.5704 H       
 103 H103           3.3877    11.3120     7.9055 H       
 104 H104           1.8237    10.6957     7.3244 H       
 105 H105           1.0355    11.0475     9.7973 H       
 106 H106           1.4940    13.4250     8.0363 H       
 107 H107           2.9582    10.5952    11.3097 H       
 108 H108           3.8982    11.8951    11.8091 H       
 109 H109          -0.5325    14.4179     7.3086 H       
 110 H110          -3.1836    13.6687     8.3668 H       
 111 H111          -1.7716    14.6984    10.0817 H       
 112 H112          -0.1591    15.3002     9.6279 H       
 113 H113          -4.4093    13.9372     5.6881 H       
 114 H114          -4.2802    12.5687     3.7943 H       
 115 H115          -4.3812    11.1844     6.9993 H       
 116 H116          -4.8273    12.6994     7.8204 H       
 117 H117          -3.2835    10.8400     2.4740 H       
 118 H118          -1.8005    19.1928     7.4037 H       
 119 H119          -0.0601    17.4964     8.1660 H       
 120 H120          -4.3032    14.9162     9.3542 H       
 121 H121          -6.4963    15.9049     8.9235 H       
 122 H122          -6.6795    18.1393     7.9142 H       
 123 H123          -4.6652    19.4114     7.3261 H       
 124 H124          -4.1874     8.8954     4.3514 H       
 125 H125          -1.0322     9.5824     4.1083 H       
 126 H126          -1.2430     9.3313     2.3588 H       
 127 H127          -0.1215    11.5960     4.9521 H       
 128 H128           1.0396    13.7205     4.5189 H       
 129 H129          -0.0004    13.4190     0.3681 H       
 130 H130          -1.1510    11.2933     0.8228 H       
 131 H131          -6.6454    13.0571     6.1726 H       
 132 H132          -6.1993    11.5421     5.3515 H       
 133 H133          -6.6684    10.2766     7.4317 H       
 134 H134          -7.1145    11.7916     8.2528 H       
 135 H135          -8.6737    11.5567     5.9096 H       
 136 H136         -10.9132    10.7779     6.1299 H       
 137 H137         -11.3692     9.9057     7.4915 H       
 138 H138          -9.7924     9.4776     9.1381 H       
 139 H139          -2.2558     8.6935     1.1590 H       
 140 H140          -3.8942     5.1714     0.4559 H       
 141 H141          -3.0875     5.6447    -1.0771 H       
 142 H142          -4.6797     7.3737     0.4295 H       
 143 H143          -3.3625     7.9239    -0.6507 H       
 144 H144          -1.0338     6.0297    -0.0221 H       
 145 H145          -1.6692     4.7584     1.0687 H       
@<TRIPOS>BOND
   1    1    2 1
   2    1    3 am
   3    1    4 2
   4    2   77 1
   5    2   78 1
   6    2   79 1
   7    3    5 1
   8    3   80 1
   9    5    6 1
  10    5    7 1
  11    5   81 1
  12    6    8 1
  13    6   82 1
  14    6   83 1
  15    7   14 2
  16    7   15 am
  17    8    9 1
  18    8   84 1
  19    8   85 1
  20    9   10 1
  21    9   86 1
  22    9   87 1
  23   10   11 1
  24   10   88 1
  25   11   12 1
  26   11   13 2
  27   12   89 1
  28   12   90 1
  29   13   91 1
  30   15   16 1
  31   15   92 1
  32   16   17 1
  33   16   60 1
  34   16   93 1
  35   17   18 1
  36   17   94 1
  37   17   95 1
  38   18   19 1
  39   18   96 1
  40   18   97 1
  41   19   20 2
  42   19   21 am
  43   21   22 1
  44   21   98 1
  45   22   23 1
  46   22   99 1
  47   22  100 1
  48   23   24 1
  49   23  101 1
  50   23  102 1
  51   24   25 1
  52   24  103 1
  53   24  104 1
  54   25   26 1
  55   25   27 1
  56   25  105 1
  57   26   30 am
  58   26  106 1
  59   27   28 am
  60   27   29 2
  61   28  107 1
  62   28  108 1
  63   30   31 2
  64   30   32 1
  65   32   33 1
  66   32   34 1
  67   32  109 1
  68   33   35 am
  69   33  110 1
  70   34   43 1
  71   34  111 1
  72   34  112 1
  73   35   36 2
  74   35   37 1
  75   37   38 1
  76   37   39 1
  77   37  113 1
  78   38   40 am
  79   38  114 1
  80   39   62 1
  81   39  115 1
  82   39  116 1
  83   40   41 2
  84   40   42 1
  85   42   52 1
  86   42   53 1
  87   42  117 1
  88   43   44 1
  89   43   47 2
  90   44   45 ar
  91   44   48 ar
  92   45   46 1
  93   45   51 ar
  94   46   47 1
  95   46  118 1
  96   47  119 1
  97   48   49 ar
  98   48  120 1
  99   49   50 ar
 100   49  121 1
 101   50   51 ar
 102   50  122 1
 103   51  123 1
 104   52   72 am
 105   52  124 1
 106   53   54 1
 107   53  125 1
 108   53  126 1
 109   54   55 ar
 110   54   59 ar
 111   55   56 ar
 112   55  127 1
 113   56   57 ar
 114   56  128 1
 115   57   58 ar
 116   57   75 1
 117   58   59 ar
 118   58  129 1
 119   59  130 1
 120   60   61 2
 121   60   68 am
 122   62   63 1
 123   62  131 1
 124   62  132 1
 125   63   64 1
 126   63  133 1
 127   63  134 1
 128   64   65 1
 129   64  135 1
 130   65   66 1
 131   65   67 2
 132   66  136 1
 133   66  137 1
 134   67  138 1
 135   68   69 1
 136   68   74 1
 137   69   71 1
 138   69   72 1
 139   69  139 1
 140   70   71 1
 141   70   74 1
 142   70  140 1
 143   70  141 1
 144   71  142 1
 145   71  143 1
 146   72   73 2
 147   74  144 1
 148   74  145 1
 149   75   76 3

#	End of record

