#	Name: ASD01150326
#	Creating user name:	WinNT
#	Creation time:	15. 06. 2019 19:04

#	Modifying user name:	WinNT
#	Modification time:	15. 06. 2019 19:04

#	Program:	/corina/corina34_cracker 3.40 0067  02.08.2006

@<TRIPOS>MOLECULE
ASD01150326
  65   68    0    0    0
SMALL
NO_CHARGES


@<TRIPOS>ATOM
   1 N1            -0.0169     1.3927     0.0097 N.pl3   
   2 C2             0.0021    -0.0041     0.0020 C.2     
   3 C3            -1.3282    -0.4051     0.0126 C.2     
   4 N4            -2.0858     0.6950     0.0257 N.2     
   5 C5            -1.3234     1.7683     0.0301 C.2     
   6 C6             1.1389    -0.8368    -0.0137 C.2     
   7 C7             1.0964     2.2430     0.0036 C.ar    
   8 C8             1.3307     3.0747    -1.0833 C.ar    
   9 C9             2.4293     3.9118    -1.0863 C.ar    
  10 C10            3.2954     3.9223    -0.0084 C.ar    
  11 C11            3.0648     3.0952     1.0755 C.ar    
  12 C12            1.9648     2.2599     1.0870 C.ar    
  13 N13           -1.7777     3.0669     0.0436 N.3     
  14 C14           -3.2460     3.1108     0.0520 C.3     
  15 C15           -1.2224     3.8071     1.1845 C.3     
  16 O16            1.0069    -2.0474    -0.0189 O.2     
  17 O17            2.3747    -0.2923    -0.0230 O.3     
  18 C18            3.4817    -1.1958    -0.0388 C.3     
  19 C19            3.4083    -2.0704    -1.2921 C.3     
  20 C20            4.7889    -0.4008    -0.0475 C.3     
  21 C21            3.4330    -2.0838     1.2062 C.3     
  22 N22           -1.7882    -1.7164     0.0092 N.am    
  23 C23           -3.1127    -1.9659     0.0206 C.2     
  24 C24           -3.6001    -3.3552     0.0170 C.2     
  25 O25           -3.9051    -1.0435     0.0338 O.2     
  26 C26           -3.8935    -4.1566    -1.0578 C.2     
  27 O27           -4.2978    -5.3275    -0.5600 O.3     
  28 N28           -4.2956    -5.3618     0.6460 N.2     
  29 C29           -3.8884    -4.2339     1.1701 C.2     
  30 C30           -3.7816    -3.7870    -2.5145 C.3     
  31 C31           -3.7543    -3.9051     2.6102 C.ar    
  32 C32           -4.6615    -4.4223     3.5331 C.ar    
  33 C33           -4.5317    -4.1134     4.8719 C.ar    
  34 C34           -3.5038    -3.2917     5.2983 C.ar    
  35 C35           -2.6007    -2.7752     4.3866 C.ar    
  36 C36           -2.7173    -3.0824     3.0462 C.ar    
  37 H37            0.6548     3.0667    -1.9256 H       
  38 H38            2.6122     4.5587    -1.9316 H       
  39 H39            4.1539     4.5775    -0.0132 H       
  40 H40            3.7430     3.1055     1.9160 H       
  41 H41            1.7852     1.6141     1.9339 H       
  42 H42           -3.6197     2.6006     0.9398 H       
  43 H43           -3.5784     4.1489     0.0626 H       
  44 H44           -3.6295     2.6156    -0.8401 H       
  45 H45           -0.1346     3.8181     1.1157 H       
  46 H46           -1.5976     4.8304     1.1711 H       
  47 H47           -1.5228     3.3221     2.1133 H       
  48 H48            3.4429    -1.4378    -2.1791 H       
  49 H49            4.2527    -2.7596    -1.3042 H       
  50 H50            2.4770    -2.6368    -1.2859 H       
  51 H51            4.8411     0.2222     0.8454 H       
  52 H52            5.6332    -1.0900    -0.0596 H       
  53 H53            4.8235     0.2318    -0.9345 H       
  54 H54            2.5018    -2.6502     1.2124 H       
  55 H55            4.2774    -2.7730     1.1941 H       
  56 H56            3.4853    -1.4607     2.0991 H       
  57 H57           -1.1562    -2.4522    -0.0013 H       
  58 H58           -2.7847    -4.0374    -2.8773 H       
  59 H59           -4.5262    -4.3394    -3.0877 H       
  60 H60           -3.9530    -2.7170    -2.6320 H       
  61 H61           -5.4648    -5.0634     3.2012 H       
  62 H62           -5.2341    -4.5136     5.5880 H       
  63 H63           -3.4062    -3.0523     6.3469 H       
  64 H64           -1.8006    -2.1336     4.7250 H       
  65 H65           -2.0116    -2.6786     2.3353 H       
@<TRIPOS>BOND
   1    1    2 1
   2    1    7 1
   3    1    5 1
   4    2    3 2
   5    2    6 1
   6    3    4 1
   7    3   22 1
   8    4    5 2
   9    5   13 1
  10    6   16 2
  11    6   17 1
  12    7    8 ar
  13    7   12 ar
  14    8    9 ar
  15    8   37 1
  16    9   10 ar
  17    9   38 1
  18   10   11 ar
  19   10   39 1
  20   11   12 ar
  21   11   40 1
  22   12   41 1
  23   13   14 1
  24   13   15 1
  25   14   42 1
  26   14   43 1
  27   14   44 1
  28   15   45 1
  29   15   46 1
  30   15   47 1
  31   17   18 1
  32   18   19 1
  33   18   20 1
  34   18   21 1
  35   19   48 1
  36   19   49 1
  37   19   50 1
  38   20   51 1
  39   20   52 1
  40   20   53 1
  41   21   54 1
  42   21   55 1
  43   21   56 1
  44   22   23 am
  45   22   57 1
  46   23   24 1
  47   23   25 2
  48   24   26 2
  49   24   29 1
  50   26   27 1
  51   26   30 1
  52   27   28 1
  53   28   29 2
  54   29   31 1
  55   30   58 1
  56   30   59 1
  57   30   60 1
  58   31   32 ar
  59   31   36 ar
  60   32   33 ar
  61   32   61 1
  62   33   34 ar
  63   33   62 1
  64   34   35 ar
  65   34   63 1
  66   35   36 ar
  67   35   64 1
  68   36   65 1

#	End of record

