#	Name: ASD05430711
#	Creating user name:	WinNT
#	Creation time:	15. 06. 2019 21:00

#	Modifying user name:	WinNT
#	Modification time:	15. 06. 2019 21:00

#	Program:	/corina/corina34_cracker 3.40 0067  02.08.2006

@<TRIPOS>MOLECULE
ASD05430711
  54   58    0    0    0
SMALL
NO_CHARGES


@<TRIPOS>ATOM
   1 C1            -0.0169     1.3925     0.0097 C.ar    
   2 C2             0.0021    -0.0041     0.0020 C.ar    
   3 C3             1.1841     2.1043     0.0021 C.ar    
   4 C4             2.3877     1.4237    -0.0131 C.ar    
   5 C5             2.3998     0.0298    -0.0207 C.ar    
   6 C6             1.2050    -0.6774    -0.0126 C.ar    
   7 N7             3.6211    -0.6595    -0.0361 N.pl3   
   8 C8             3.9904    -1.6816     0.7994 C.2     
   9 C9             4.6588    -0.4444    -0.8853 C.2     
  10 N10            5.6176    -1.2797    -0.5902 N.2     
  11 C11            5.2347    -2.0499     0.4389 C.2     
  12 C12            6.0551    -3.1385     1.0813 C.3     
  13 C13           -3.4800     2.5806     0.0334 C.2     
  14 C14           -2.7527     3.7776     0.0369 C.2     
  15 C15           -3.4524     4.9971     0.0473 C.2     
  16 N16           -4.7544     5.0244     0.0536 N.2     
  17 N17           -5.5282     3.8610     0.0505 N.am    
  18 C18           -4.9392     2.6444     0.0358 C.2     
  19 O19           -5.6093     1.6256     0.0329 O.2     
  20 C20           -6.9898     3.9605     0.0579 C.3     
  21 C21           -7.4437     4.7074     1.3137 C.3     
  22 C22           -7.4484     4.7106    -1.1660 C.ar    
  23 C23           -8.5778     4.2962    -1.8472 C.ar    
  24 C24           -8.9997     4.9835    -2.9694 C.ar    
  25 C25           -8.2907     6.0875    -3.4116 C.ar    
  26 C26           -7.1597     6.5016    -2.7286 C.ar    
  27 C27           -6.7428     5.8159    -1.6035 C.ar    
  28 F28           -8.7019     6.7599    -4.5089 F       
  29 C29           -2.5318     1.5329     0.0224 C.2     
  30 C30           -1.3053     2.1150     0.0197 C.2     
  31 O31           -1.4473     3.4561     0.0285 O.3     
  32 O32            3.5590     2.1139    -0.0210 O.3     
  33 C33            3.4717     3.5402    -0.0130 C.3     
  34 H34           -0.9259    -0.5566     0.0079 H       
  35 H35            1.1731     3.1842     0.0076 H       
  36 H36            1.2180    -1.7573    -0.0186 H       
  37 H37            3.3976    -2.1090     1.5945 H       
  38 H38            4.6862     0.2939    -1.6731 H       
  39 H39            6.6460    -2.7165     1.8943 H       
  40 H40            5.3920    -3.9085     1.4758 H       
  41 H41            6.7209    -3.5781     0.3385 H       
  42 H42           -2.9014     5.9260     0.0505 H       
  43 H43           -7.4221     2.9599     0.0541 H       
  44 H44           -8.5312     4.7815     1.3192 H       
  45 H45           -7.1119     4.1649     2.1990 H       
  46 H46           -7.0114     5.7080     1.3175 H       
  47 H47           -9.1305     3.4347    -1.5023 H       
  48 H48           -9.8818     4.6593    -3.5016 H       
  49 H49           -6.6059     7.3627    -3.0726 H       
  50 H50           -5.8606     6.1387    -1.0706 H       
  51 H51           -2.7422     0.4736     0.0176 H       
  52 H52            4.4752     3.9657    -0.0206 H       
  53 H53            2.9280     3.8759    -0.8960 H       
  54 H54            2.9453     3.8669     0.8838 H       
@<TRIPOS>BOND
   1    1    2 ar
   2    1    3 ar
   3    1   30 1
   4    2    6 ar
   5    2   34 1
   6    3    4 ar
   7    3   35 1
   8    4    5 ar
   9    4   32 1
  10    5    6 ar
  11    5    7 1
  12    6   36 1
  13    7    8 1
  14    7    9 1
  15    8   11 2
  16    8   37 1
  17    9   10 2
  18    9   38 1
  19   10   11 1
  20   11   12 1
  21   12   39 1
  22   12   40 1
  23   12   41 1
  24   13   14 2
  25   13   29 1
  26   13   18 1
  27   14   15 1
  28   14   31 1
  29   15   16 2
  30   15   42 1
  31   16   17 1
  32   17   18 am
  33   17   20 1
  34   18   19 2
  35   20   21 1
  36   20   22 1
  37   20   43 1
  38   21   44 1
  39   21   45 1
  40   21   46 1
  41   22   23 ar
  42   22   27 ar
  43   23   24 ar
  44   23   47 1
  45   24   25 ar
  46   24   48 1
  47   25   26 ar
  48   25   28 1
  49   26   27 ar
  50   26   49 1
  51   27   50 1
  52   29   30 2
  53   29   51 1
  54   30   31 1
  55   32   33 1
  56   33   52 1
  57   33   53 1
  58   33   54 1

#	End of record

