#	Name: ASD03091628
#	Creating user name:	WinNT
#	Creation time:	15. 06. 2019 20:31

#	Modifying user name:	WinNT
#	Modification time:	15. 06. 2019 20:31

#	Program:	/corina/corina34_cracker 3.40 0067  02.08.2006

@<TRIPOS>MOLECULE
ASD03091628
  40   42    0    0    0
SMALL
NO_CHARGES


@<TRIPOS>ATOM
   1 Cl1            0.0000     0.0000     0.0000 Cl      
   2 H2             0.0000     1.3700     0.0000 H       
   3 C3            14.5221    10.3502     6.5680 C.ar    
   4 C4            14.5411     8.9498     6.5603 C.ar    
   5 C5            15.7633     8.2698     6.5450 C.ar    
   6 C6            16.9451     8.9725     6.5375 C.ar    
   7 C7            16.9313    10.3630     6.5455 C.ar    
   8 C8            15.7558    11.0448     6.5600 C.ar    
   9 S9            12.8909     8.3383     6.5734 S.3     
  10 C10           12.2349     9.9658     6.5886 C.2     
  11 C11           13.2185    10.8713     6.5890 C.2     
  12 C12           10.8012    10.2890     6.6046 C.2     
  13 O13           10.4396    11.4505     6.6140 O.2     
  14 N14            9.8871     9.2986     6.6089 N.am    
  15 N15            6.9514     8.8768     8.4059 N.3     
  16 C16            7.9996     9.8491     8.0680 C.3     
  17 C17            8.4581     9.6207     6.6248 C.3     
  18 C18            7.6611     8.4522     6.0314 C.3     
  19 C19            6.1682     8.7999     6.0873 C.3     
  20 C20            5.7730     9.0504     7.5454 C.3     
  21 C21            7.4621     7.5013     8.3272 C.3     
  22 C22            7.9059     7.2061     6.8917 C.3     
  23 Br23          18.5933     8.0457     6.5167 Br      
  24 H24           15.7787     7.1899     6.5394 H       
  25 H25           17.8644    10.9067     6.5399 H       
  26 H26           15.7628    12.1248     6.5653 H       
  27 H27           13.0231    11.9334     6.5974 H       
  28 H28           10.1755     8.3724     6.6014 H       
  29 H29            7.6040    10.8599     8.1683 H       
  30 H30            8.8458     9.7209     8.7430 H       
  31 H31            8.2781    10.5212     6.0376 H       
  32 H32            7.9665     8.2758     5.0000 H       
  33 H33            5.9799     9.6976     5.4985 H       
  34 H34            5.5848     7.9701     5.6883 H       
  35 H35            5.0000     8.3406     7.8398 H       
  36 H36            5.3930    10.0666     7.6497 H       
  37 H37            8.3118     7.3896     9.0008 H       
  38 H38            6.6752     6.8041     8.6152 H       
  39 H39            7.3295     6.3700     6.4958 H       
  40 H40            8.9672     6.9579     6.8813 H       
@<TRIPOS>BOND
   1    1    2 1
   2    3    4 ar
   3    3    8 ar
   4    3   11 1
   5    4    5 ar
   6    4    9 1
   7    5    6 ar
   8    5   24 1
   9    6    7 ar
  10    6   23 1
  11    7    8 ar
  12    7   25 1
  13    8   26 1
  14    9   10 1
  15   10   11 2
  16   10   12 1
  17   11   27 1
  18   12   13 2
  19   12   14 am
  20   14   17 1
  21   14   28 1
  22   15   16 1
  23   15   20 1
  24   15   21 1
  25   16   17 1
  26   16   29 1
  27   16   30 1
  28   17   18 1
  29   17   31 1
  30   18   19 1
  31   18   22 1
  32   18   32 1
  33   19   20 1
  34   19   33 1
  35   19   34 1
  36   20   35 1
  37   20   36 1
  38   21   22 1
  39   21   37 1
  40   21   38 1
  41   22   39 1
  42   22   40 1

#	End of record

