#	Name: ASD09740114
#	Creating user name:	WinNT
#	Creation time:	15. 06. 2019 21:22

#	Modifying user name:	WinNT
#	Modification time:	15. 06. 2019 21:22

#	Program:	/corina/corina34_cracker 3.40 0067  02.08.2006

@<TRIPOS>MOLECULE
ASD09740114
  30   32    0    0    0
SMALL
NO_CHARGES


@<TRIPOS>ATOM
   1 N1            -0.0144     1.2085     0.0087 N.2     
   2 O2             0.0021    -0.0041     0.0020 O.3     
   3 C3             1.2062     1.6796    -0.0004 C.2     
   4 N4             2.0456     0.6231    -0.0141 N.2     
   5 C5             1.2698    -0.4440    -0.0124 C.2     
   6 C6             1.7125    -1.8551    -0.0238 C.ar    
   7 C7             1.5959     3.1121     0.0028 C.ar    
   8 C8             0.6166     4.1028     0.0172 C.ar    
   9 C9             0.9844     5.4332     0.0201 C.ar    
  10 C10            2.3224     5.7834     0.0083 C.ar    
  11 C11            3.2988     4.8037    -0.0065 C.ar    
  12 C12            2.9421     3.4703    -0.0028 C.ar    
  13 C13            0.7822    -2.9006    -0.0206 C.ar    
  14 C14            1.2388    -4.2024    -0.0315 C.ar    
  15 N15            2.5321    -4.4670    -0.0443 N.ar    
  16 C16            3.4424    -3.5108    -0.0478 C.ar    
  17 C17            3.0733    -2.1815    -0.0439 C.ar    
  18 O18            2.9560    -5.8181    -0.0542 O.3     
  19 C19            2.7180     7.2375     0.0110 C.3     
  20 F20            2.8536     7.6814     1.3308 F       
  21 F21            3.9359     7.3908    -0.6601 F       
  22 F22            1.7316     7.9903    -0.6352 F       
  23 H23           -0.4285     3.8305     0.0257 H       
  24 H24            0.2260     6.2021     0.0312 H       
  25 H25            4.3421     5.0826    -0.0161 H       
  26 H26            3.7053     2.7062    -0.0140 H       
  27 H27           -0.2773    -2.6914    -0.0094 H       
  28 H28            0.5285    -5.0160    -0.0291 H       
  29 H29            4.4901    -3.7728    -0.0585 H       
  30 H30            3.8233    -1.4044    -0.0468 H       
@<TRIPOS>BOND
   1    1    2 1
   2    1    3 2
   3    2    5 1
   4    3    4 1
   5    3    7 1
   6    4    5 2
   7    5    6 1
   8    6   13 ar
   9    6   17 ar
  10    7    8 ar
  11    7   12 ar
  12    8    9 ar
  13    8   23 1
  14    9   10 ar
  15    9   24 1
  16   10   11 ar
  17   10   19 1
  18   11   12 ar
  19   11   25 1
  20   12   26 1
  21   13   14 ar
  22   13   27 1
  23   14   15 ar
  24   14   28 1
  25   15   16 ar
  26   15   18 1
  27   16   17 ar
  28   16   29 1
  29   17   30 1
  30   19   20 1
  31   19   21 1
  32   19   22 1

#	End of record

