#	Name: ASD01810454
#	Creating user name:	WinNT
#	Creation time:	15. 06. 2019 19:24

#	Modifying user name:	WinNT
#	Modification time:	15. 06. 2019 19:24

#	Program:	/corina/corina34_cracker 3.40 0067  02.08.2006

@<TRIPOS>MOLECULE
ASD01810454
  43   46    0    0    0
SMALL
NO_CHARGES


@<TRIPOS>ATOM
   1 C1            -0.0170     1.4043     0.0098 C.ar    
   2 C2             0.0021    -0.0041     0.0020 C.ar    
   3 N3             1.1691     2.0969     0.0022 N.pl3   
   4 N4             2.3157     1.5282    -0.0119 N.2     
   5 C5             2.4953     0.2257    -0.0206 C.2     
   6 C6             1.3199    -0.6657    -0.0141 C.2     
   7 O7             1.4315    -1.8791    -0.0221 O.2     
   8 C8             3.8564    -0.3377    -0.0362 C.2     
   9 C9             1.1193     3.5610     0.0100 C.3     
  10 C10            1.1156     4.0559     1.4334 C.ar    
  11 O11            4.0152    -1.5424    -0.0442 O.2     
  12 O12            4.9254     0.4831    -0.0416 O.3     
  13 C13            2.3125     4.3229     2.0733 C.ar    
  14 C14            2.3148     4.7764     3.3769 C.ar    
  15 C15            1.1086     4.9654     4.0482 C.ar    
  16 C16           -0.0941     4.6952     3.3987 C.ar    
  17 C17           -0.0850     4.2467     2.0934 C.ar    
  18 C18            1.1049     5.4522     5.4500 C.ar    
  19 C19            2.3075     5.7275     6.0978 C.ar    
  20 C20           -1.1890    -0.7248     0.0099 C.ar    
  21 C21           -2.3819    -0.0553     0.0253 C.ar    
  22 C22           -2.4108     1.3328     0.0326 C.ar    
  23 C23           -1.2431     2.0638     0.0308 C.ar    
  24 C24           -0.1013     5.6412     6.1214 C.ar    
  25 C25           -0.0989     6.0947     7.4249 C.ar    
  26 C26            1.0980     6.3613     8.0649 C.ar    
  27 C27            2.2981     6.1805     7.4014 C.ar    
  28 H28            1.9916     3.9570    -0.5100 H       
  29 H29            0.2127     3.8964    -0.4937 H       
  30 H30            5.7983     0.0670    -0.0519 H       
  31 H31            3.2468     4.1761     1.5519 H       
  32 H32            3.2500     4.9839     3.8757 H       
  33 H33           -1.0319     4.8400     3.9144 H       
  34 H34           -1.0166     4.0373     1.5889 H       
  35 H35            3.2451     5.5862     5.5808 H       
  36 H36           -1.1714    -1.8046     0.0036 H       
  37 H37           -3.3082    -0.6107     0.0315 H       
  38 H38           -3.3610     1.8461     0.0444 H       
  39 H39           -1.2787     3.1432     0.0364 H       
  40 H40           -1.0365     5.4336     5.6225 H       
  41 H41           -1.0333     6.2419     7.9461 H       
  42 H42            1.0953     6.7160     9.0850 H       
  43 H43            3.2298     6.3898     7.9060 H       
@<TRIPOS>BOND
   1    1    2 ar
   2    1    3 1
   3    1   23 ar
   4    2   20 ar
   5    2    6 1
   6    3    4 1
   7    3    9 1
   8    4    5 2
   9    5    6 1
  10    5    8 1
  11    6    7 2
  12    8   11 2
  13    8   12 1
  14    9   10 1
  15    9   28 1
  16    9   29 1
  17   10   13 ar
  18   10   17 ar
  19   12   30 1
  20   13   14 ar
  21   13   31 1
  22   14   15 ar
  23   14   32 1
  24   15   16 ar
  25   15   18 1
  26   16   17 ar
  27   16   33 1
  28   17   34 1
  29   18   24 ar
  30   18   19 ar
  31   19   27 ar
  32   19   35 1
  33   20   21 ar
  34   20   36 1
  35   21   22 ar
  36   21   37 1
  37   22   23 ar
  38   22   38 1
  39   23   39 1
  40   24   25 ar
  41   24   40 1
  42   25   26 ar
  43   25   41 1
  44   26   27 ar
  45   26   42 1
  46   27   43 1

#	End of record

