#	Name: ASD01900829
#	Creating user name:	WinNT
#	Creation time:	15. 06. 2019 19:52

#	Modifying user name:	WinNT
#	Modification time:	15. 06. 2019 19:52

#	Program:	/corina/corina34_cracker 3.40 0067  02.08.2006

@<TRIPOS>MOLECULE
ASD01900829
  57   61    0    0    0
SMALL
NO_CHARGES


@<TRIPOS>ATOM
   1 C1             0.1568     1.3092     0.4949 C.ar    
   2 C2             0.2077    -0.0685     0.4656 C.ar    
   3 C3             1.3970    -0.7229     0.1792 C.ar    
   4 C4             2.5509    -0.0040    -0.0736 C.ar    
   5 C5             2.5174     1.3794    -0.0422 C.ar    
   6 C6             1.3100     2.0458     0.2335 C.ar    
   7 N7             3.6557     2.1445    -0.2706 N.pl3   
   8 C8             3.5024     3.4890    -0.8379 C.3     
   9 N9             2.3903     4.1880    -0.1928 N.am    
  10 C10            1.3061     3.5187     0.2469 C.2     
  11 C11            2.4541     5.5759    -0.0282 C.ar    
  12 C12            1.7429     6.4109    -0.8801 C.ar    
  13 C13            1.8077     7.7805    -0.7155 C.ar    
  14 C14            2.5805     8.3211     0.2973 C.ar    
  15 C15            3.2901     7.4914     1.1476 C.ar    
  16 C16            3.2243     6.1208     0.9909 C.ar    
  17 Cl17           2.6602    10.0433     0.5011 Cl      
  18 O18            0.3327     4.1257     0.6509 O.2     
  19 Br19           1.4406    -2.6128     0.1350 Br      
  20 C20            4.7955     4.2802    -0.6198 C.3     
  21 C21            3.2315     3.3764    -2.3408 C.3     
  22 C22            3.1400     4.7803    -2.9433 C.3     
  23 N23            4.3981     5.4994    -2.7068 N.3     
  24 C24            4.6581     5.6586    -1.2705 C.3     
  25 C25            4.3972     6.8004    -3.3890 C.3     
  26 C26            5.6472     7.5594    -3.0251 C.ar    
  27 C27            5.5855     8.9199    -2.7884 C.ar    
  28 C28            6.7321     9.6161    -2.4546 C.ar    
  29 C29            7.9404     8.9517    -2.3572 C.ar    
  30 C30            8.0020     7.5910    -2.5930 C.ar    
  31 C31            6.8545     6.8940    -2.9225 C.ar    
  32 C32            4.3554     6.5824    -4.9028 C.3     
  33 H33           -0.7722     1.8140     0.7147 H       
  34 H34           -0.6848    -0.6423     0.6673 H       
  35 H35            3.4739    -0.5195    -0.2942 H       
  36 H36            4.5356     1.7958    -0.0583 H       
  37 H37            1.1400     5.9895    -1.6709 H       
  38 H38            1.2552     8.4303    -1.3779 H       
  39 H39            3.8924     7.9159     1.9372 H       
  40 H40            3.7748     5.4736     1.6576 H       
  41 H41            4.9744     4.3982     0.4489 H       
  42 H42            5.6304     3.7454    -1.0727 H       
  43 H43            4.0443     2.8282    -2.8171 H       
  44 H44            2.2916     2.8488    -2.5028 H       
  45 H45            2.9613     4.7042    -4.0159 H       
  46 H46            2.3182     5.3230    -2.4762 H       
  47 H47            3.8303     6.1971    -0.8091 H       
  48 H48            5.5810     6.2209    -1.1285 H       
  49 H49            3.5221     7.3721    -3.0800 H       
  50 H50            4.6415     9.4390    -2.8645 H       
  51 H51            6.6840    10.6792    -2.2703 H       
  52 H52            8.8364     9.4957    -2.0971 H       
  53 H53            8.9460     7.0720    -2.5172 H       
  54 H54            6.9020     5.8303    -3.1032 H       
  55 H55            4.3546     7.5478    -5.4090 H       
  56 H56            5.2304     6.0108    -5.2119 H       
  57 H57            3.4512     6.0335    -5.1661 H       
@<TRIPOS>BOND
   1    1    2 ar
   2    1    6 ar
   3    1   33 1
   4    2    3 ar
   5    2   34 1
   6    3    4 ar
   7    3   19 1
   8    4    5 ar
   9    4   35 1
  10    5    7 1
  11    5    6 ar
  12    6   10 1
  13    7    8 1
  14    7   36 1
  15    8    9 1
  16    8   21 1
  17    8   20 1
  18    9   10 am
  19    9   11 1
  20   10   18 2
  21   11   12 ar
  22   11   16 ar
  23   12   13 ar
  24   12   37 1
  25   13   14 ar
  26   13   38 1
  27   14   15 ar
  28   14   17 1
  29   15   16 ar
  30   15   39 1
  31   16   40 1
  32   20   24 1
  33   20   41 1
  34   20   42 1
  35   21   22 1
  36   21   43 1
  37   21   44 1
  38   22   23 1
  39   22   45 1
  40   22   46 1
  41   23   24 1
  42   23   25 1
  43   24   47 1
  44   24   48 1
  45   25   26 1
  46   25   32 1
  47   25   49 1
  48   26   27 ar
  49   26   31 ar
  50   27   28 ar
  51   27   50 1
  52   28   29 ar
  53   28   51 1
  54   29   30 ar
  55   29   52 1
  56   30   31 ar
  57   30   53 1
  58   31   54 1
  59   32   55 1
  60   32   56 1
  61   32   57 1

#	End of record

