#	Name: ASD06660092
#	Creating user name:	WinNT
#	Creation time:	15. 06. 2019 21:08

#	Modifying user name:	WinNT
#	Modification time:	15. 06. 2019 21:08

#	Program:	/corina/corina34_cracker 3.40 0067  02.08.2006

@<TRIPOS>MOLECULE
ASD06660092
  80   83    0    0    0
SMALL
NO_CHARGES


@<TRIPOS>ATOM
   1 C1             0.2679     1.9385     1.0509 C.2     
   2 C2             0.0349     0.5433     0.5311 C.3     
   3 C3            -1.0994     0.5643    -0.4954 C.3     
   4 O4             1.3458     2.4650     0.9061 O.2     
   5 O5            -0.7236     2.5984     1.6699 O.3     
   6 C6            -1.4212    -0.8462    -0.9173 C.ar    
   7 C7            -2.3445    -1.5865    -0.2020 C.ar    
   8 C8            -2.6418    -2.8794    -0.5859 C.ar    
   9 C9            -2.0122    -3.4359    -1.6920 C.ar    
  10 C10           -1.0853    -2.6894    -2.4084 C.ar    
  11 C11           -0.7969    -1.3952    -2.0223 C.ar    
  12 N12           -2.3102    -4.7434    -2.0828 N.3     
  13 C13           -1.5351    -5.1276    -3.2694 C.3     
  14 C14           -1.9912    -6.5057    -3.7540 C.3     
  15 C15           -1.7857    -7.5291    -2.6337 C.3     
  16 C16           -2.5644    -7.0804    -1.3941 C.3     
  17 C17           -2.0917    -5.6856    -0.9778 C.3     
  18 C18           -2.2962    -8.8970    -3.0908 C.3     
  19 N19           -1.9913    -9.8992    -2.0667 N.pl3   
  20 C20           -2.3613   -11.2251    -2.2598 C.ar    
  21 C21           -3.0209   -11.5937    -3.4281 C.ar    
  22 C22           -3.3832   -12.9163    -3.6072 C.ar    
  23 C23           -3.0726   -13.8298    -2.6082 C.ar    
  24 C24           -2.4165   -13.3947    -1.4745 C.ar    
  25 N25           -2.0780   -12.1270    -1.3328 N.ar    
  26 C26            2.2808    -0.3934     0.6563 C.2     
  27 C27            3.5511    -0.8086     0.0196 C.ar    
  28 C28            3.7913    -2.1581    -0.2437 C.ar    
  29 C29            4.9740    -2.5446    -0.8360 C.ar    
  30 C30            5.9314    -1.5866    -1.1731 C.ar    
  31 C31            5.6911    -0.2374    -0.9103 C.ar    
  32 C32            4.5058     0.1498    -0.3227 C.ar    
  33 O33            2.1595    -0.4504     1.8642 O.2     
  34 N34            1.2588     0.0478    -0.1035 N.am    
  35 C35            7.2021    -2.0018    -1.8089 C.2     
  36 N36            8.1267    -1.0768    -2.1344 N.am    
  37 O37            7.4116    -3.1769    -2.0374 O.2     
  38 C38            9.3842    -1.4878    -2.7636 C.3     
  39 C39            4.2436     1.6075    -0.0445 C.3     
  40 C40            2.7576    -3.1924     0.1203 C.3     
  41 C41            1.7477    -3.3278    -1.0211 C.3     
  42 H42           -0.2362    -0.1122     1.3588 H       
  43 H43           -1.9834     1.0212    -0.0508 H       
  44 H44           -0.7906     1.1425    -1.3663 H       
  45 H45           -0.5266     3.4908     1.9861 H       
  46 H46           -2.8334    -1.1533     0.6581 H       
  47 H47           -3.3627    -3.4572    -0.0265 H       
  48 H48           -0.5941    -3.1192    -3.2688 H       
  49 H49           -0.0798    -0.8126    -2.5816 H       
  50 H50           -1.6935    -4.3939    -4.0598 H       
  51 H51           -0.4759    -5.1643    -3.0150 H       
  52 H52           -3.0471    -6.4663    -4.0216 H       
  53 H53           -1.4050    -6.7974    -4.6254 H       
  54 H54           -0.7248    -7.5971    -2.3926 H       
  55 H55           -3.6293    -7.0500    -1.6246 H       
  56 H56           -2.3877    -7.7827    -0.5794 H       
  57 H57           -1.0299    -5.7197    -0.7342 H       
  58 H58           -2.6543    -5.3573    -0.1039 H       
  59 H59           -3.3744    -8.8500    -3.2436 H       
  60 H60           -1.8085    -9.1730    -4.0258 H       
  61 H61           -1.5313    -9.6375    -1.2538 H       
  62 H62           -3.2472   -10.8569    -4.1847 H       
  63 H63           -3.8964   -13.2317    -4.5036 H       
  64 H64           -3.3420   -14.8699    -2.7172 H       
  65 H65           -2.1730   -14.1017    -0.6952 H       
  66 H66            5.1602    -3.5888    -1.0390 H       
  67 H67            6.4319     0.5039    -1.1711 H       
  68 H68            1.3337     0.0373    -1.0705 H       
  69 H69            7.9594    -0.1389    -1.9520 H       
  70 H70           10.0008    -0.6088    -2.9514 H       
  71 H71            9.9163    -2.1699    -2.1006 H       
  72 H72            9.1711    -1.9904    -3.7070 H       
  73 H73            4.6123     1.8597     0.9497 H       
  74 H74            4.7569     2.2173    -0.7879 H       
  75 H75            3.1718     1.7997    -0.0942 H       
  76 H76            3.2470    -4.1518     0.2881 H       
  77 H77            2.2399    -2.8848     1.0288 H       
  78 H78            1.3306    -2.3484    -1.2553 H       
  79 H79            2.2473    -3.7301    -1.9024 H       
  80 H80            0.9459    -4.0014    -0.7188 H       
@<TRIPOS>BOND
   1    1    2 1
   2    1    4 2
   3    1    5 1
   4    2    3 1
   5    2   34 1
   6    2   42 1
   7    3    6 1
   8    3   43 1
   9    3   44 1
  10    5   45 1
  11    6    7 ar
  12    6   11 ar
  13    7    8 ar
  14    7   46 1
  15    8    9 ar
  16    8   47 1
  17    9   10 ar
  18    9   12 1
  19   10   11 ar
  20   10   48 1
  21   11   49 1
  22   12   13 1
  23   12   17 1
  24   13   14 1
  25   13   50 1
  26   13   51 1
  27   14   15 1
  28   14   52 1
  29   14   53 1
  30   15   16 1
  31   15   18 1
  32   15   54 1
  33   16   17 1
  34   16   55 1
  35   16   56 1
  36   17   57 1
  37   17   58 1
  38   18   19 1
  39   18   59 1
  40   18   60 1
  41   19   20 1
  42   19   61 1
  43   20   21 ar
  44   20   25 ar
  45   21   22 ar
  46   21   62 1
  47   22   23 ar
  48   22   63 1
  49   23   24 ar
  50   23   64 1
  51   24   25 ar
  52   24   65 1
  53   26   27 1
  54   26   33 2
  55   26   34 am
  56   27   28 ar
  57   27   32 ar
  58   28   29 ar
  59   28   40 1
  60   29   30 ar
  61   29   66 1
  62   30   31 ar
  63   30   35 1
  64   31   32 ar
  65   31   67 1
  66   32   39 1
  67   34   68 1
  68   35   36 am
  69   35   37 2
  70   36   38 1
  71   36   69 1
  72   38   70 1
  73   38   71 1
  74   38   72 1
  75   39   73 1
  76   39   74 1
  77   39   75 1
  78   40   41 1
  79   40   76 1
  80   40   77 1
  81   41   78 1
  82   41   79 1
  83   41   80 1

#	End of record

