#	Name: ASD01470051
#	Creating user name:	WinNT
#	Creation time:	15. 06. 2019 19:21

#	Modifying user name:	WinNT
#	Modification time:	15. 06. 2019 19:21

#	Program:	/corina/corina34_cracker 3.40 0067  02.08.2006

@<TRIPOS>MOLECULE
ASD01470051
  30   32    0    0    0
SMALL
NO_CHARGES


@<TRIPOS>ATOM
   1 C1            -0.3022     1.8970     0.0368 C.3     
   2 C2            -0.1555     0.3744     0.0080 C.3     
   3 C3            -1.5215    -0.2621     0.0169 C.ar    
   4 C4            -2.1657    -0.5332    -1.1785 C.ar    
   5 C5            -3.4178    -1.1157    -1.1871 C.ar    
   6 C6            -4.0462    -1.4370     0.0101 C.ar    
   7 C7            -3.3906    -1.1615     1.2191 C.ar    
   8 C8            -2.1263    -0.5793     1.2166 C.ar    
   9 C9            -4.2972    -1.6087     2.2973 C.2     
  10 C10           -4.0808    -1.5403     3.6602 C.2     
  11 S11           -5.2459    -1.8498     4.9617 S.3     
  12 C12           -4.0967    -1.5268     6.2709 C.2     
  13 N13           -4.3404    -1.5851     7.5490 N.2     
  14 N14           -2.9021    -1.2043     5.6817 N.am    
  15 C15           -2.8249    -1.1989     4.3613 C.2     
  16 O16           -1.8004    -0.9238     3.7684 O.2     
  17 C17           -5.4843    -2.1435     1.6018 C.2     
  18 O18           -6.4725    -2.6158     2.1321 O.2     
  19 N19           -5.2806    -2.0170     0.2795 N.am    
  20 H20            0.6858     2.3574     0.0304 H       
  21 H21           -0.8614     2.2248    -0.8395 H       
  22 H22           -0.8354     2.1937     0.9400 H       
  23 H23            0.3777     0.0777    -0.8952 H       
  24 H24            0.4038     0.0466     0.8843 H       
  25 H25           -1.6844    -0.2863    -2.1132 H       
  26 H26           -3.9098    -1.3216    -2.1262 H       
  27 H27           -1.6244    -0.3685     2.1494 H       
  28 H28           -5.2261    -1.8250     7.8633 H       
  29 H29           -2.1266    -0.9886     6.2229 H       
  30 H30           -5.9143    -2.2945    -0.4004 H       
@<TRIPOS>BOND
   1    1    2 1
   2    1   20 1
   3    1   21 1
   4    1   22 1
   5    2    3 1
   6    2   23 1
   7    2   24 1
   8    3    4 ar
   9    3    8 ar
  10    4    5 ar
  11    4   25 1
  12    5    6 ar
  13    5   26 1
  14    6    7 ar
  15    6   19 1
  16    7    8 ar
  17    7    9 1
  18    8   27 1
  19    9   10 2
  20    9   17 1
  21   10   11 1
  22   10   15 1
  23   11   12 1
  24   12   13 2
  25   12   14 1
  26   13   28 1
  27   14   15 am
  28   14   29 1
  29   15   16 2
  30   17   18 2
  31   17   19 am
  32   19   30 1

#	End of record

