#	Name: ASD01810044
#	Creating user name:	WinNT
#	Creation time:	15. 06. 2019 19:23

#	Modifying user name:	WinNT
#	Modification time:	15. 06. 2019 19:23

#	Program:	/corina/corina34_cracker 3.40 0067  02.08.2006

@<TRIPOS>MOLECULE
ASD01810044
  40   42    0    0    0
SMALL
NO_CHARGES


@<TRIPOS>ATOM
   1 C1             0.0546     1.4949     0.4704 C.ar    
   2 C2             0.0339     0.1202     0.6503 C.ar    
   3 C3             1.1597    -0.6387     0.4118 C.ar    
   4 C4             2.3385    -0.0304    -0.0153 C.ar    
   5 C5             2.3592     1.3637    -0.1863 C.ar    
   6 C6             1.2092     2.1205     0.0539 C.ar    
   7 N7             3.4480    -0.8148    -0.2678 N.3     
   8 C8             4.7204    -0.1046    -0.1334 C.3     
   9 C9             4.7309     1.1144    -1.0672 C.3     
  10 C10            3.6046     2.0250    -0.6112 C.2     
  11 O11            3.7241     3.2321    -0.5980 O.2     
  12 C12            6.0506     1.8340    -0.9604 C.2     
  13 O13            6.2764     2.9344    -1.6951 O.3     
  14 O14            6.9055     1.4204    -0.2135 O.2     
  15 C15            3.4331    -2.0293     0.5586 C.3     
  16 C16            4.5970    -2.9086     0.1801 C.ar    
  17 C17            5.7728    -2.8472     0.9050 C.ar    
  18 C18            6.8411    -3.6522     0.5600 C.ar    
  19 C19            6.7335    -4.5229    -0.5147 C.ar    
  20 C20            5.5526    -4.5827    -1.2404 C.ar    
  21 C21            4.4852    -3.7796    -0.8879 C.ar    
  22 O22            7.7832    -5.3156    -0.8563 O.3     
  23 C23            7.6010    -6.1875    -1.9737 C.3     
  24 H24           -0.8374     2.0758     0.6529 H       
  25 H25           -0.8743    -0.3614     0.9814 H       
  26 H26            1.1282    -1.7084     0.5567 H       
  27 H27            1.2254     3.1912    -0.0868 H       
  28 H28            4.8439     0.2270     0.8976 H       
  29 H29            5.5391    -0.7730    -0.3998 H       
  30 H30            4.5603     0.7971    -2.0960 H       
  31 H31            7.1378     3.3616    -1.5927 H       
  32 H32            3.5125    -1.7542     1.6103 H       
  33 H33            2.5009    -2.5695     0.3937 H       
  34 H34            5.8562    -2.1689     1.7413 H       
  35 H35            7.7595    -3.6036     1.1263 H       
  36 H36            5.4663    -5.2597    -2.0774 H       
  37 H37            3.5657    -3.8258    -1.4525 H       
  38 H38            8.5124    -6.7624    -2.1382 H       
  39 H39            6.7735    -6.8678    -1.7726 H       
  40 H40            7.3783    -5.5972    -2.8626 H       
@<TRIPOS>BOND
   1    1    2 ar
   2    1    6 ar
   3    1   24 1
   4    2    3 ar
   5    2   25 1
   6    3    4 ar
   7    3   26 1
   8    4    5 ar
   9    4    7 1
  10    5    6 ar
  11    5   10 1
  12    6   27 1
  13    7    8 1
  14    7   15 1
  15    8    9 1
  16    8   28 1
  17    8   29 1
  18    9   10 1
  19    9   12 1
  20    9   30 1
  21   10   11 2
  22   12   13 1
  23   12   14 2
  24   13   31 1
  25   15   16 1
  26   15   32 1
  27   15   33 1
  28   16   17 ar
  29   16   21 ar
  30   17   18 ar
  31   17   34 1
  32   18   19 ar
  33   18   35 1
  34   19   22 1
  35   19   20 ar
  36   20   21 ar
  37   20   36 1
  38   21   37 1
  39   22   23 1
  40   23   38 1
  41   23   39 1
  42   23   40 1

#	End of record

