#	Name: ASD03730317
#	Creating user name:	WinNT
#	Creation time:	15. 06. 2019 20:44

#	Modifying user name:	WinNT
#	Modification time:	15. 06. 2019 20:44

#	Program:	/corina/corina34_cracker 3.40 0067  02.08.2006

@<TRIPOS>MOLECULE
ASD03730317
  60   65    0    0    0
SMALL
NO_CHARGES


@<TRIPOS>ATOM
   1 N1            -0.5157     0.6737     2.3489 N.3     
   2 C2            -0.2998    -0.7922     2.3580 C.3     
   3 O3             0.6305    -0.9987     1.2798 O.3     
   4 C4             1.3468     0.1565     1.1548 C.ar    
   5 C5             0.6682     1.1948     1.7915 C.ar    
   6 C6             2.5586     0.4088     0.5337 C.ar    
   7 C7             3.0998     1.6906     0.5329 C.ar    
   8 C8             2.4019     2.7210     1.1552 C.ar    
   9 C9             1.1993     2.4741     1.7846 C.ar    
  10 O10            4.2764     2.1382     0.0065 O.3     
  11 C11            3.2116     3.9730     0.9514 C.3     
  12 C12            4.2179     3.5703    -0.1357 C.3     
  13 N13            2.5588     6.1113     1.4279 N.am    
  14 C14            2.3629     5.1350     0.5197 C.2     
  15 C15            3.8942     4.4255     2.2077 C.ar    
  16 C16            4.7891     3.8288     3.0786 C.ar    
  17 C17            5.2520     4.5309     4.1861 C.ar    
  18 C18            4.8163     5.8226     4.4111 C.ar    
  19 C19            3.9245     6.4191     3.5435 C.ar    
  20 C20            3.4515     5.7253     2.4310 C.ar    
  21 O21            1.6433     5.1850    -0.4553 O.2     
  22 C22           -0.7252     1.1834     3.7106 C.3     
  23 C23            0.5860     1.0977     4.4946 C.3     
  24 C24            0.3678     1.6286     5.9128 C.3     
  25 C25            1.6789     1.5429     6.6968 C.3     
  26 C26            1.4607     2.0738     8.1150 C.3     
  27 N27            5.2264     2.5225     2.8458 N.pl3   
  28 C28            6.2452     1.9765     3.6306 C.ar    
  29 C29            6.1502     0.6657     4.0802 C.ar    
  30 C30            7.1601     0.1273     4.8572 C.ar    
  31 C31            8.2649     0.8942     5.1873 C.ar    
  32 C32            8.3617     2.2013     4.7402 C.ar    
  33 C33            7.3571     2.7419     3.9578 C.ar    
  34 F34            9.4405     2.9473     5.0641 F       
  35 F35            7.0683    -1.1476     5.2947 F       
  36 H36            0.1339    -1.1108     3.3059 H       
  37 H37           -1.2342    -1.3194     2.1654 H       
  38 H38            3.0882    -0.3963     0.0462 H       
  39 H39            0.6711     3.2797     2.2728 H       
  40 H40            5.1932     4.0182     0.0548 H       
  41 H41            3.8507     3.8463    -1.1242 H       
  42 H42            2.1302     6.9806     1.3895 H       
  43 H43            5.9496     4.0679     4.8683 H       
  44 H44            5.1759     6.3686     5.2707 H       
  45 H45            3.5908     7.4296     3.7276 H       
  46 H46           -1.0531     2.2218     3.6634 H       
  47 H47           -1.4867     0.5842     4.2097 H       
  48 H48            0.9139     0.0593     4.5418 H       
  49 H49            1.3475     1.6969     3.9955 H       
  50 H50            0.0399     2.6670     5.8656 H       
  51 H51           -0.3938     1.0294     6.4119 H       
  52 H52            2.0068     0.5045     6.7440 H       
  53 H53            2.4405     2.1421     6.1977 H       
  54 H54            2.3948     2.0128     8.6735 H       
  55 H55            1.1328     3.1122     8.0678 H       
  56 H56            0.6992     1.4746     8.6141 H       
  57 H57            4.8228     1.9946     2.1392 H       
  58 H58            5.2885     0.0675     3.8236 H       
  59 H59            9.0521     0.4724     5.7946 H       
  60 H60            7.4353     3.7598     3.6053 H       
@<TRIPOS>BOND
   1    1    2 1
   2    1    5 1
   3    1   22 1
   4    2    3 1
   5    2   36 1
   6    2   37 1
   7    3    4 1
   8    4    5 ar
   9    4    6 ar
  10    5    9 ar
  11    6    7 ar
  12    6   38 1
  13    7    8 ar
  14    7   10 1
  15    8    9 ar
  16    8   11 1
  17    9   39 1
  18   10   12 1
  19   11   12 1
  20   11   14 1
  21   11   15 1
  22   12   40 1
  23   12   41 1
  24   13   14 am
  25   13   20 1
  26   13   42 1
  27   14   21 2
  28   15   16 ar
  29   15   20 ar
  30   16   17 ar
  31   16   27 1
  32   17   18 ar
  33   17   43 1
  34   18   19 ar
  35   18   44 1
  36   19   20 ar
  37   19   45 1
  38   22   23 1
  39   22   46 1
  40   22   47 1
  41   23   24 1
  42   23   48 1
  43   23   49 1
  44   24   25 1
  45   24   50 1
  46   24   51 1
  47   25   26 1
  48   25   52 1
  49   25   53 1
  50   26   54 1
  51   26   55 1
  52   26   56 1
  53   27   28 1
  54   27   57 1
  55   28   29 ar
  56   28   33 ar
  57   29   30 ar
  58   29   58 1
  59   30   31 ar
  60   30   35 1
  61   31   32 ar
  62   31   59 1
  63   32   33 ar
  64   32   34 1
  65   33   60 1

#	End of record

