#	Name: ASD01914066
#	Creating user name:	WinNT
#	Creation time:	15. 06. 2019 20:02

#	Modifying user name:	WinNT
#	Modification time:	15. 06. 2019 20:02

#	Program:	/corina/corina34_cracker 3.40 0067  02.08.2006

@<TRIPOS>MOLECULE
ASD01914066
  50   53    0    0    0
SMALL
NO_CHARGES


@<TRIPOS>ATOM
   1 C1            -0.6212    -0.2639     0.7885 C.ar    
   2 C2            -0.8007    -1.6482     0.7714 C.ar    
   3 C3            -2.0752    -2.1776     0.6938 C.ar    
   4 C4            -3.0045     0.0393     0.6601 C.ar    
   5 C5            -1.7318     0.5797     0.7323 C.ar    
   6 O6            -4.0877     0.8584     0.6053 O.3     
   7 C7            -5.3706     0.2333     0.5320 C.3     
   8 C8            -6.4426     1.2912     0.4790 C.ar    
   9 N9            -7.7090     0.9286     0.4080 N.ar    
  10 C10           -8.6839     1.8127     0.3595 C.ar    
  11 C11           -8.4041     3.1793     0.3815 C.ar    
  12 C12           -7.0692     3.5953     0.4565 C.ar    
  13 C13           -6.0827     2.6267     0.5114 C.ar    
  14 C14           -9.4986     4.1717     0.3260 C.2     
  15 N15          -10.7795     3.7588     0.2535 N.am    
  16 O16           -9.2433     5.3599     0.3458 O.2     
  17 C17           -3.1746    -1.3381     0.6329 C.ar    
  18 C18          -11.8686     4.7373     0.3055 C.3     
  19 F19           -2.2486    -3.5173     0.6768 F       
  20 C20            0.6974     0.2887     0.8693 C.1     
  21 N21            1.7434     0.7271     0.9335 N.1     
  22 C22          -11.9582     5.4431     1.6339 C.ar    
  23 C23          -11.8991     5.6897    -0.9015 C.3     
  24 C24          -12.7940     4.6513    -1.5985 C.3     
  25 C25          -13.2157     4.1867    -0.1916 C.3     
  26 C26          -11.3044     4.9262     2.7367 C.ar    
  27 C27          -11.3867     5.5736     3.9553 C.ar    
  28 C28          -12.1223     6.7383     4.0710 C.ar    
  29 C29          -12.7753     7.2557     2.9679 C.ar    
  30 C30          -12.6895     6.6106     1.7483 C.ar    
  31 H31            0.0555    -2.3048     0.8185 H       
  32 H32           -1.5992     1.6514     0.7535 H       
  33 H33           -5.4237    -0.3830    -0.3655 H       
  34 H34           -5.5207    -0.3924     1.4118 H       
  35 H35           -9.7088     1.4769     0.3018 H       
  36 H36           -6.8164     4.6451     0.4755 H       
  37 H37           -5.0423     2.9102     0.5699 H       
  38 H38          -10.9803     2.8137     0.1669 H       
  39 H39           -4.1684    -1.7565     0.5720 H       
  40 H40          -12.4031     6.6348    -0.6992 H       
  41 H41          -10.9282     5.8204    -1.3793 H       
  42 H42          -13.6072     5.0924    -2.1749 H       
  43 H43          -12.2366     3.8998    -2.1578 H       
  44 H44          -13.3071     3.1045    -0.0984 H       
  45 H45          -14.0794     4.7211     0.2041 H       
  46 H46          -10.7297     4.0163     2.6464 H       
  47 H47          -10.8765     5.1693     4.8171 H       
  48 H48          -12.1871     7.2437     5.0232 H       
  49 H49          -13.3503     8.1654     3.0583 H       
  50 H50          -13.1997     7.0149     0.8865 H       
@<TRIPOS>BOND
   1    1    2 ar
   2    1   20 1
   3    1    5 ar
   4    2    3 ar
   5    2   31 1
   6    3   17 ar
   7    3   19 1
   8    4    5 ar
   9    4    6 1
  10    4   17 ar
  11    5   32 1
  12    6    7 1
  13    7    8 1
  14    7   33 1
  15    7   34 1
  16    8    9 ar
  17    8   13 ar
  18    9   10 ar
  19   10   11 ar
  20   10   35 1
  21   11   12 ar
  22   11   14 1
  23   12   13 ar
  24   12   36 1
  25   13   37 1
  26   14   15 am
  27   14   16 2
  28   15   18 1
  29   15   38 1
  30   17   39 1
  31   18   22 1
  32   18   23 1
  33   18   25 1
  34   20   21 3
  35   22   26 ar
  36   22   30 ar
  37   23   24 1
  38   23   40 1
  39   23   41 1
  40   24   25 1
  41   24   42 1
  42   24   43 1
  43   25   44 1
  44   25   45 1
  45   26   27 ar
  46   26   46 1
  47   27   28 ar
  48   27   47 1
  49   28   29 ar
  50   28   48 1
  51   29   30 ar
  52   29   49 1
  53   30   50 1

#	End of record

