#	Name: ASD01230118
#	Creating user name:	WinNT
#	Creation time:	15. 06. 2019 19:11

#	Modifying user name:	WinNT
#	Modification time:	15. 06. 2019 19:11

#	Program:	/corina/corina34_cracker 3.40 0067  02.08.2006

@<TRIPOS>MOLECULE
ASD01230118
  53   56    0    0    0
SMALL
NO_CHARGES


@<TRIPOS>ATOM
   1 C1            -0.0184     1.5028     0.0103 C.3     
   2 C2             0.0021    -0.0041     0.0020 C.ar    
   3 C3             0.7603     4.2896     0.8665 C.ar    
   4 C4             1.3973     3.5348    -0.1161 C.ar    
   5 C5             1.4170     2.0324    -0.0006 C.3     
   6 C6             0.7255     5.6500     0.7901 C.ar    
   7 C7             1.3372     6.2997    -0.2894 C.ar    
   8 C8             1.9863     5.5358    -1.2924 C.ar    
   9 C9             2.0014     4.1325    -1.1788 C.ar    
  10 C10            1.3209     7.7131    -0.4029 C.ar    
  11 C11            1.9486     8.2840    -1.5020 C.ar    
  12 C12            2.5675     7.4591    -2.4477 C.ar    
  13 N13            2.5707     6.1452    -2.3244 N.ar    
  14 C14            3.2353     8.0767    -3.6188 C.2     
  15 N15            3.8366     7.2980    -4.5399 N.am    
  16 O16            3.2403     9.2848    -3.7480 O.2     
  17 C17            0.6553     8.5534     0.6179 C.ar    
  18 C18            0.0229    -0.7100     1.1897 C.ar    
  19 C19           -0.0056    -0.6997    -1.1975 C.ar    
  20 C20            0.0140    -2.0853    -1.1568 C.ar    
  21 C21            0.0402    -2.7228     0.0694 C.ar    
  22 N22            0.0414    -2.0287     1.1905 N.ar    
  23 C23            1.3318     9.6357     1.1824 C.ar    
  24 C24            0.7090    10.4158     2.1326 C.ar    
  25 C25           -0.5904    10.1260     2.5286 C.ar    
  26 C26           -1.2668     9.0496     1.9689 C.ar    
  27 C27           -0.6523     8.2686     1.0139 C.ar    
  28 C28            2.1189     1.6299     1.2980 C.3     
  29 O29           -1.2010    10.8967     3.4656 O.3     
  30 C30           -2.5376    10.5425     3.8264 C.3     
  31 H31           -0.5455     1.8639    -0.8728 H       
  32 H32           -0.5286     1.8543     0.9071 H       
  33 H33            0.2842     3.7901     1.6973 H       
  34 H34            1.9538     1.6096    -0.8498 H       
  35 H35            0.2284     6.2241     1.5579 H       
  36 H36            2.4906     3.5329    -1.9321 H       
  37 H37            1.9588     9.3568    -1.6262 H       
  38 H38            3.8326     6.3335    -4.4368 H       
  39 H39            4.2734     7.7020    -5.3060 H       
  40 H40            0.0245    -0.1757     2.1283 H       
  41 H41           -0.0266    -0.1746    -2.1410 H       
  42 H42            0.0084    -2.6594    -2.0716 H       
  43 H43            0.0555    -3.8020     0.1097 H       
  44 H44            2.3424     9.8614     0.8752 H       
  45 H45            1.2320    11.2533     2.5701 H       
  46 H46           -2.2770     8.8269     2.2794 H       
  47 H47           -1.1787     7.4318     0.5792 H       
  48 H48            3.1415     2.0072     1.2903 H       
  49 H49            1.5821     2.0526     2.1473 H       
  50 H50            2.1332     0.5432     1.3816 H       
  51 H51           -2.5491     9.5292     4.2278 H       
  52 H52           -2.9061    11.2367     4.5816 H       
  53 H53           -3.1770    10.5915     2.9450 H       
@<TRIPOS>BOND
   1    1    2 1
   2    1    5 1
   3    1   31 1
   4    1   32 1
   5    2   18 ar
   6    2   19 ar
   7    3    4 ar
   8    3    6 ar
   9    3   33 1
  10    4    5 1
  11    4    9 ar
  12    5   28 1
  13    5   34 1
  14    6    7 ar
  15    6   35 1
  16    7    8 ar
  17    7   10 ar
  18    8    9 ar
  19    8   13 ar
  20    9   36 1
  21   10   11 ar
  22   10   17 1
  23   11   12 ar
  24   11   37 1
  25   12   13 ar
  26   12   14 1
  27   14   15 am
  28   14   16 2
  29   15   38 1
  30   15   39 1
  31   17   23 ar
  32   17   27 ar
  33   18   22 ar
  34   18   40 1
  35   19   20 ar
  36   19   41 1
  37   20   21 ar
  38   20   42 1
  39   21   22 ar
  40   21   43 1
  41   23   24 ar
  42   23   44 1
  43   24   25 ar
  44   24   45 1
  45   25   29 1
  46   25   26 ar
  47   26   27 ar
  48   26   46 1
  49   27   47 1
  50   28   48 1
  51   28   49 1
  52   28   50 1
  53   29   30 1
  54   30   51 1
  55   30   52 1
  56   30   53 1

#	End of record

