#	Name: ASD01148347
#	Creating user name:	WinNT
#	Creation time:	15. 06. 2019 19:02

#	Modifying user name:	WinNT
#	Modification time:	15. 06. 2019 19:02

#	Program:	/corina/corina34_cracker 3.40 0067  02.08.2006

@<TRIPOS>MOLECULE
ASD01148347
  48   51    0    0    0
SMALL
NO_CHARGES


@<TRIPOS>ATOM
   1 C1            -0.4098     1.8302    -0.0437 C.ar    
   2 C2            -0.4706     0.4509     0.0164 C.ar    
   3 C3             0.6953    -0.2901     0.0957 C.ar    
   4 C4             1.9212     0.3505     0.1148 C.ar    
   5 C5             1.9809     1.7302     0.0547 C.ar    
   6 C6             0.8159     2.4698    -0.0246 C.ar    
   7 C7             3.3163     2.4282     0.0755 C.3     
   8 O8             4.3316     1.6187    -0.5519 O.3     
   9 C9             3.3022     3.6783    -0.8362 C.3     
  10 C10            3.8442     3.1375    -2.1457 C.2     
  11 N11            4.3964     1.9940    -1.9136 N.2     
  12 C12            3.7548     3.8039    -3.4597 C.ar    
  13 C13            4.2991     3.1920    -4.5920 C.ar    
  14 C14            3.1210     5.0438    -3.5725 C.ar    
  15 C15            3.0377     5.6653    -4.7981 C.ar    
  16 C16            3.5865     5.0560    -5.9290 C.ar    
  17 C17            4.2158     3.8134    -5.8172 C.ar    
  18 C18            3.4967     5.7228    -7.2443 C.2     
  19 O19            4.0688     5.2488    -8.2063 O.2     
  20 N20            2.7803     6.8566    -7.3776 N.am    
  21 C21            4.8078     3.1560    -7.0372 C.3     
  22 C22            3.7162     2.7968     1.5056 C.3     
  23 F23            3.7878     1.6363     2.2836 F       
  24 F24            4.9649     3.4275     1.4928 F       
  25 F25            2.7614     3.6637     2.0479 F       
  26 Cl26           0.6196    -2.0227     0.1717 Cl      
  27 C27            2.6959     7.4832    -8.6136 C.ar    
  28 N28            1.9877     8.5965    -8.7266 N.ar    
  29 N29            3.3298     6.9561    -9.6499 N.ar    
  30 C30            3.2702     7.5276   -10.8412 C.ar    
  31 C31            2.5331     8.6912   -10.9966 C.ar    
  32 C32            1.8867     9.2185    -9.8896 C.ar    
  33 H33           -1.3195     2.4084    -0.1101 H       
  34 H34           -1.4281    -0.0486     0.0017 H       
  35 H35            2.8316    -0.2273     0.1770 H       
  36 H36            0.8630     3.5477    -0.0715 H       
  37 H37            2.2865     4.0532    -0.9632 H       
  38 H38            3.9554     4.4549    -0.4383 H       
  39 H39            4.7855     2.2315    -4.5056 H       
  40 H40            2.6961     5.5146    -2.6983 H       
  41 H41            2.5478     6.6239    -4.8853 H       
  42 H42            2.3237     7.2348    -6.6099 H       
  43 H43            5.8041     3.5589    -7.2196 H       
  44 H44            4.8750     2.0805    -6.8739 H       
  45 H45            4.1724     3.3534    -7.9006 H       
  46 H46            3.7897     7.0932   -11.6826 H       
  47 H47            2.4677     9.1789   -11.9580 H       
  48 H48            1.3039    10.1236    -9.9765 H       
@<TRIPOS>BOND
   1    1    2 ar
   2    1    6 ar
   3    1   33 1
   4    2    3 ar
   5    2   34 1
   6    3    4 ar
   7    3   26 1
   8    4    5 ar
   9    4   35 1
  10    5    6 ar
  11    5    7 1
  12    6   36 1
  13    7    8 1
  14    7    9 1
  15    7   22 1
  16    8   11 1
  17    9   10 1
  18    9   37 1
  19    9   38 1
  20   10   11 2
  21   10   12 1
  22   12   13 ar
  23   12   14 ar
  24   13   17 ar
  25   13   39 1
  26   14   15 ar
  27   14   40 1
  28   15   16 ar
  29   15   41 1
  30   16   17 ar
  31   16   18 1
  32   17   21 1
  33   18   19 2
  34   18   20 am
  35   20   27 1
  36   20   42 1
  37   21   43 1
  38   21   44 1
  39   21   45 1
  40   22   23 1
  41   22   24 1
  42   22   25 1
  43   27   28 ar
  44   27   29 ar
  45   28   32 ar
  46   29   30 ar
  47   30   31 ar
  48   30   46 1
  49   31   32 ar
  50   31   47 1
  51   32   48 1

#	End of record

