#	Name: ASD01180269
#	Creating user name:	WinNT
#	Creation time:	15. 06. 2019 19:07

#	Modifying user name:	WinNT
#	Modification time:	15. 06. 2019 19:07

#	Program:	/corina/corina34_cracker 3.40 0067  02.08.2006

@<TRIPOS>MOLECULE
ASD01180269
  65   67    0    0    0
SMALL
NO_CHARGES


@<TRIPOS>ATOM
   1 C1            -2.1311    -2.2792    -6.7212 C.2     
   2 C2            -1.6326    -2.9739    -5.4803 C.3     
   3 C3            -0.5529    -3.9883    -5.8626 C.3     
   4 O4            -1.6702    -2.5660    -7.8006 O.2     
   5 O5            -3.0911    -1.3457    -6.6279 O.3     
   6 C6             0.8918    -5.6049    -4.7506 C.2     
   7 C7             1.3799    -6.2851    -3.5357 C.ar    
   8 C8             2.3792    -7.2667    -3.6223 C.ar    
   9 C9             2.8018    -7.8717    -2.4698 C.ar    
  10 C10            2.2324    -7.4988    -1.2532 C.ar    
  11 N11            1.2891    -6.5684    -1.1991 N.ar    
  12 C12            0.8586    -5.9575    -2.2832 C.ar    
  13 O13            1.3556    -5.8936    -5.8368 O.2     
  14 N14           -0.0682    -4.6637    -4.6563 N.am    
  15 N15            2.6574    -8.1087    -0.0852 N.pl3   
  16 C16            3.7830    -9.0460    -0.1158 C.3     
  17 C17            4.4266    -9.1156     1.2705 C.3     
  18 C18            5.0452    -7.7591     1.6143 C.3     
  19 C19            5.7904    -7.8615     2.9466 C.3     
  20 C20            2.3695   -12.9291    -1.2267 C.ar    
  21 C21            3.5853   -12.4556    -1.7296 C.ar    
  22 C22            4.0367   -11.1973    -1.3659 C.ar    
  23 C23            3.2871   -10.4137    -0.5087 C.ar    
  24 C24            2.0838   -10.8795    -0.0095 C.ar    
  25 C25            1.6222   -12.1314    -0.3638 C.ar    
  26 C26            1.8751   -14.2724    -1.6153 C.ar    
  27 C27            1.4555   -15.1730    -0.6380 C.ar    
  28 C28            0.9964   -16.4216    -1.0054 C.ar    
  29 C29            0.9523   -16.7799    -2.3407 C.ar    
  30 C30            1.3675   -15.8900    -3.3150 C.ar    
  31 C31            1.8230   -14.6367    -2.9595 C.ar    
  32 C32            0.4505   -18.1449    -2.7355 C.3     
  33 F33           -0.9317   -18.0910    -2.9450 F       
  34 F34            1.0852   -18.5522    -3.9139 F       
  35 F35            0.7322   -19.0587    -1.7143 F       
  36 O36            4.3214   -13.2267    -2.5716 O.3     
  37 C37            5.5525   -12.6773    -3.0453 C.3     
  38 H38           -1.2127    -2.2372    -4.7953 H       
  39 H39           -2.4609    -3.4903    -4.9953 H       
  40 H40           -0.9727    -4.7250    -6.5476 H       
  41 H41            0.2755    -3.4719    -6.3476 H       
  42 H42           -3.3785    -0.9277    -7.4512 H       
  43 H43            2.8048    -7.5388    -4.5769 H       
  44 H44            3.5689    -8.6312    -2.5025 H       
  45 H45            0.0926    -5.2003    -2.2031 H       
  46 H46           -0.4383    -4.4334    -3.7897 H       
  47 H47            2.2100    -7.9154     0.7535 H       
  48 H48            4.5205    -8.7044    -0.8421 H       
  49 H49            3.6675    -9.3670     2.0112 H       
  50 H50            5.2034    -9.8802     1.2724 H       
  51 H51            5.7430    -7.4685     0.8290 H       
  52 H52            4.2571    -7.0105     1.6953 H       
  53 H53            6.2311    -6.8951     3.1916 H       
  54 H54            5.0925    -8.1521     3.7319 H       
  55 H55            6.5785    -8.6101     2.8656 H       
  56 H56            4.9753   -10.8283    -1.7523 H       
  57 H57            1.5036   -10.2616     0.6597 H       
  58 H58            0.6822   -12.4916     0.0276 H       
  59 H59            1.4898   -14.8945     0.4049 H       
  60 H60            0.6713   -17.1205    -0.2488 H       
  61 H61            1.3313   -16.1751    -4.3560 H       
  62 H62            2.1425   -13.9409    -3.7213 H       
  63 H63            6.0394   -13.3937    -3.7070 H       
  64 H64            5.3526   -11.7556    -3.5918 H       
  65 H65            6.2046   -12.4634    -2.1985 H       
@<TRIPOS>BOND
   1    1    2 1
   2    1    4 2
   3    1    5 1
   4    2    3 1
   5    2   38 1
   6    2   39 1
   7    3   14 1
   8    3   40 1
   9    3   41 1
  10    5   42 1
  11    6    7 1
  12    6   13 2
  13    6   14 am
  14    7    8 ar
  15    7   12 ar
  16    8    9 ar
  17    8   43 1
  18    9   10 ar
  19    9   44 1
  20   10   11 ar
  21   10   15 1
  22   11   12 ar
  23   12   45 1
  24   14   46 1
  25   15   16 1
  26   15   47 1
  27   16   17 1
  28   16   23 1
  29   16   48 1
  30   17   18 1
  31   17   49 1
  32   17   50 1
  33   18   19 1
  34   18   51 1
  35   18   52 1
  36   19   53 1
  37   19   54 1
  38   19   55 1
  39   20   21 ar
  40   20   25 ar
  41   20   26 1
  42   21   22 ar
  43   21   36 1
  44   22   23 ar
  45   22   56 1
  46   23   24 ar
  47   24   25 ar
  48   24   57 1
  49   25   58 1
  50   26   27 ar
  51   26   31 ar
  52   27   28 ar
  53   27   59 1
  54   28   29 ar
  55   28   60 1
  56   29   30 ar
  57   29   32 1
  58   30   31 ar
  59   30   61 1
  60   31   62 1
  61   32   33 1
  62   32   34 1
  63   32   35 1
  64   36   37 1
  65   37   63 1
  66   37   64 1
  67   37   65 1

#	End of record

