#	Name: ASD03540101
#	Creating user name:	WinNT
#	Creation time:	15. 06. 2019 20:42

#	Modifying user name:	WinNT
#	Modification time:	15. 06. 2019 20:42

#	Program:	/corina/corina34_cracker 3.40 0067  02.08.2006

@<TRIPOS>MOLECULE
ASD03540101
  49   51    0    0    0
SMALL
NO_CHARGES


@<TRIPOS>ATOM
   1 C1             0.7238     1.1423    -1.2343 C.2     
   2 C2             0.5093    -0.2526    -0.7902 C.ar    
   3 C3             1.5812    -1.1453    -0.7576 C.ar    
   4 C4             1.3785    -2.4558    -0.3401 C.ar    
   5 C5             2.5101    -3.4064    -0.3029 C.2     
   6 C6             0.0894    -2.8743     0.0480 C.ar    
   7 C7            -0.9731    -1.9729     0.0110 C.ar    
   8 C8            -0.7636    -0.6710    -0.3994 C.ar    
   9 O9             1.8317     1.5091    -1.5700 O.2     
  10 O10           -0.3109     2.0038    -1.2717 O.3     
  11 O11            2.3137    -4.5740    -0.0323 O.2     
  12 O12            3.7590    -2.9775    -0.5690 O.3     
  13 C13           -0.1344    -4.2631     0.4918 C.2     
  14 O14           -0.6609    -5.0573    -0.2511 O.2     
  15 C15            0.2934    -4.6914     1.8719 C.3     
  16 C16           -0.0270     3.3561    -1.7177 C.3     
  17 C17           -1.2953     4.1696    -1.6938 C.ar    
  18 C18           -1.6477     4.8670    -0.5535 C.ar    
  19 C19           -2.8112     5.6132    -0.5316 C.ar    
  20 C20           -3.6219     5.6624    -1.6502 C.ar    
  21 C21           -3.2690     4.9656    -2.7907 C.ar    
  22 C22           -2.1034     4.2229    -2.8141 C.ar    
  23 C23            4.8212    -3.9661    -0.5140 C.3     
  24 C24            6.1375    -3.3075    -0.8374 C.ar    
  25 C25            6.9057    -2.7642     0.1753 C.ar    
  26 C26            8.1132    -2.1601    -0.1214 C.ar    
  27 C27            8.5526    -2.0997    -1.4306 C.ar    
  28 C28            7.7848    -2.6439    -2.4432 C.ar    
  29 C29            6.5794    -3.2518    -2.1460 C.ar    
  30 H30            2.5664    -0.8190    -1.0565 H       
  31 H31           -1.9613    -2.2921     0.3077 H       
  32 H32           -1.5890     0.0250    -0.4222 H       
  33 H33            0.6573    -3.8252     2.4246 H       
  34 H34           -0.5567    -5.1266     2.3972 H       
  35 H35            1.0891    -5.4320     1.7921 H       
  36 H36            0.7087     3.8106    -1.0542 H       
  37 H37            0.3678     3.3283    -2.7333 H       
  38 H38           -1.0143     4.8287     0.3204 H       
  39 H39           -3.0869     6.1576     0.3595 H       
  40 H40           -4.5313     6.2448    -1.6328 H       
  41 H41           -3.9027     5.0038    -3.6645 H       
  42 H42           -1.8258     3.6816    -3.7064 H       
  43 H43            4.8661    -4.3958     0.4867 H       
  44 H44            4.6215    -4.7547    -1.2395 H       
  45 H45            6.5624    -2.8113     1.1982 H       
  46 H46            8.7131    -1.7349     0.6697 H       
  47 H47            9.4956    -1.6271    -1.6625 H       
  48 H48            8.1280    -2.5964    -3.4661 H       
  49 H49            5.9813    -3.6802    -2.9366 H       
@<TRIPOS>BOND
   1    1    2 1
   2    1    9 2
   3    1   10 1
   4    2    3 ar
   5    2    8 ar
   6    3    4 ar
   7    3   30 1
   8    4    5 1
   9    4    6 ar
  10    5   11 2
  11    5   12 1
  12    6    7 ar
  13    6   13 1
  14    7    8 ar
  15    7   31 1
  16    8   32 1
  17   10   16 1
  18   12   23 1
  19   13   14 2
  20   13   15 1
  21   15   33 1
  22   15   34 1
  23   15   35 1
  24   16   17 1
  25   16   36 1
  26   16   37 1
  27   17   18 ar
  28   17   22 ar
  29   18   19 ar
  30   18   38 1
  31   19   20 ar
  32   19   39 1
  33   20   21 ar
  34   20   40 1
  35   21   22 ar
  36   21   41 1
  37   22   42 1
  38   23   24 1
  39   23   43 1
  40   23   44 1
  41   24   25 ar
  42   24   29 ar
  43   25   26 ar
  44   25   45 1
  45   26   27 ar
  46   26   46 1
  47   27   28 ar
  48   27   47 1
  49   28   29 ar
  50   28   48 1
  51   29   49 1

#	End of record

