#	Name: ASD02500586
#	Creating user name:	WinNT
#	Creation time:	15. 06. 2019 20:23

#	Modifying user name:	WinNT
#	Modification time:	15. 06. 2019 20:23

#	Program:	/corina/corina34_cracker 3.40 0067  02.08.2006

@<TRIPOS>MOLECULE
ASD02500586
  70   74    0    0    0
SMALL
NO_CHARGES


@<TRIPOS>ATOM
   1 N1            -4.0242     5.5301    -2.1371 N.ar    
   2 C2            -4.9599     6.1421    -2.8213 C.ar    
   3 C3            -6.2694     6.2330    -2.3538 C.ar    
   4 C4            -6.6049     5.6751    -1.1532 C.ar    
   5 C5            -5.5975     5.0183    -0.4214 C.ar    
   6 C6            -5.8669     4.4215     0.8204 C.ar    
   7 C7            -4.8650     3.7958     1.4978 C.ar    
   8 C8            -3.5748     3.7401     0.9751 C.ar    
   9 C9            -3.2785     4.3079    -0.2259 C.ar    
  10 C10           -4.2859     4.9629    -0.9552 C.ar    
  11 S11           -1.6381     4.2231    -0.8635 S.o2    
  12 O12           -1.2782     5.5500    -1.2229 O.2     
  13 O13           -0.8909     3.4368     0.0545 O.2     
  14 N14           -1.7045     3.3583    -2.2741 N.am    
  15 C15           -2.0146     2.0031    -2.2448 C.ar    
  16 C16           -1.3996     1.1302    -3.1384 C.ar    
  17 C17           -1.7043    -0.2112    -3.1120 C.ar    
  18 C18           -2.6326    -0.6976    -2.1864 C.ar    
  19 C19           -3.2482     0.1812    -1.2907 C.ar    
  20 C20           -2.9349     1.5211    -1.3184 C.ar    
  21 C21           -2.9619    -2.1352    -2.1557 C.2     
  22 O22           -3.1045    -2.7487    -3.1958 O.2     
  23 N23           -3.1048    -2.7687    -0.9747 N.am    
  24 C24           -3.3209    -4.2225    -0.9192 C.3     
  25 C25           -2.3058    -4.8286     0.0557 C.3     
  26 N26           -2.3996    -4.1369     1.3482 N.3     
  27 C27           -2.0443    -2.7173     1.2199 C.3     
  28 C28           -3.0427    -2.0255     0.2930 C.3     
  29 C29           -1.5664    -4.7986     2.3611 C.3     
  30 C30           -1.6200    -4.0011     3.6657 C.3     
  31 C31           -3.0581    -3.9722     4.1872 C.3     
  32 C32           -0.7273    -4.6530     4.6900 C.ar    
  33 C33            0.3298    -3.9479     5.2344 C.ar    
  34 C34            1.1487    -4.5460     6.1739 C.ar    
  35 C35            0.9103    -5.8489     6.5693 C.ar    
  36 C36           -0.1473    -6.5537     6.0256 C.ar    
  37 C37           -0.9689    -5.9542     5.0893 C.ar    
  38 C38           -0.3995     1.6554    -4.1360 C.3     
  39 H39           -4.7092     6.5880    -3.7724 H       
  40 H40           -7.0183     6.7446    -2.9402 H       
  41 H41           -7.6148     5.7365    -0.7756 H       
  42 H42           -6.8629     4.4588     1.2362 H       
  43 H43           -5.0731     3.3370     2.4531 H       
  44 H44           -2.7972     3.2385     1.5319 H       
  45 H45           -1.5270     3.7970    -3.1208 H       
  46 H46           -1.2273    -0.8878    -3.8056 H       
  47 H47           -3.9657    -0.1915    -0.5746 H       
  48 H48           -3.4067     2.1999    -0.6234 H       
  49 H49           -4.3325    -4.4292    -0.5699 H       
  50 H50           -3.1779    -4.6521    -1.9107 H       
  51 H51           -2.5218    -5.8881     0.1936 H       
  52 H52           -1.2998    -4.7116    -0.3473 H       
  53 H53           -2.0707    -2.2455     2.2021 H       
  54 H54           -1.0420    -2.6296     0.8006 H       
  55 H55           -2.7158    -1.0033     0.1025 H       
  56 H56           -4.0270    -2.0170     0.7610 H       
  57 H57           -1.9401    -5.8074     2.5364 H       
  58 H58           -0.5364    -4.8488     2.0080 H       
  59 H59           -1.2793    -2.9820     3.4829 H       
  60 H60           -3.3988    -4.9913     4.3700 H       
  61 H61           -3.0962    -3.4041     5.1166 H       
  62 H62           -3.7038    -3.5007     3.4463 H       
  63 H63            0.5161    -2.9300     4.9255 H       
  64 H64            1.9750    -3.9953     6.5987 H       
  65 H65            1.5505    -6.3164     7.3028 H       
  66 H66           -0.3334    -7.5718     6.3343 H       
  67 H67           -1.7974    -6.5036     4.6672 H       
  68 H68            0.5991     1.6236    -3.7004 H       
  69 H69           -0.4240     1.0384    -5.0342 H       
  70 H70           -0.6504     2.6840    -4.3949 H       
@<TRIPOS>BOND
   1    1    2 ar
   2    1   10 ar
   3    2    3 ar
   4    2   39 1
   5    3    4 ar
   6    3   40 1
   7    4    5 ar
   8    4   41 1
   9    5    6 ar
  10    5   10 ar
  11    6    7 ar
  12    6   42 1
  13    7    8 ar
  14    7   43 1
  15    8    9 ar
  16    8   44 1
  17    9   10 ar
  18    9   11 1
  19   11   12 2
  20   11   13 2
  21   11   14 am
  22   14   15 1
  23   14   45 1
  24   15   16 ar
  25   15   20 ar
  26   16   17 ar
  27   16   38 1
  28   17   18 ar
  29   17   46 1
  30   18   19 ar
  31   18   21 1
  32   19   20 ar
  33   19   47 1
  34   20   48 1
  35   21   22 2
  36   21   23 am
  37   23   24 1
  38   23   28 1
  39   24   25 1
  40   24   49 1
  41   24   50 1
  42   25   26 1
  43   25   51 1
  44   25   52 1
  45   26   27 1
  46   26   29 1
  47   27   28 1
  48   27   53 1
  49   27   54 1
  50   28   55 1
  51   28   56 1
  52   29   30 1
  53   29   57 1
  54   29   58 1
  55   30   31 1
  56   30   32 1
  57   30   59 1
  58   31   60 1
  59   31   61 1
  60   31   62 1
  61   32   33 ar
  62   32   37 ar
  63   33   34 ar
  64   33   63 1
  65   34   35 ar
  66   34   64 1
  67   35   36 ar
  68   35   65 1
  69   36   37 ar
  70   36   66 1
  71   37   67 1
  72   38   68 1
  73   38   69 1
  74   38   70 1

#	End of record

