#	Name: ASD04880521
#	Creating user name:	WinNT
#	Creation time:	15. 06. 2019 20:53

#	Modifying user name:	WinNT
#	Modification time:	15. 06. 2019 20:53

#	Program:	/corina/corina34_cracker 3.40 0067  02.08.2006

@<TRIPOS>MOLECULE
ASD04880521
  37   39    0    0    0
SMALL
NO_CHARGES


@<TRIPOS>ATOM
   1 C1            -0.0144     1.2117     0.0087 C.2     
   2 O2             0.0480    -0.0024     0.0311 O.2     
   3 N3             1.1159     1.9437    -0.0478 N.am    
   4 N4             1.1785     3.3283    -0.1900 N.2     
   5 C5             2.3766     3.8009    -0.2185 C.2     
   6 C6             3.3695     2.6686    -0.0844 C.3     
   7 C7             2.4853     1.4117     0.0370 C.3     
   8 C8             2.7259     5.2267    -0.3606 C.ar    
   9 C9             1.7189     6.1863    -0.4770 C.ar    
  10 C10            2.0558     7.5248    -0.6097 C.ar    
  11 C11            3.3932     7.9070    -0.6265 C.ar    
  12 C12            4.3900     6.9569    -0.5112 C.ar    
  13 C13            4.0658     5.6224    -0.3733 C.ar    
  14 S14            0.7898     8.7415    -0.7578 S.3     
  15 C15            1.7257    10.2887    -0.9017 C.3     
  16 C16           -1.3299     1.8846     0.0373 C.ar    
  17 C17           -1.4042     3.2736     0.1561 C.ar    
  18 C18           -2.6374     3.8960     0.1822 C.ar    
  19 C19           -3.7978     3.1435     0.0907 C.ar    
  20 C20           -3.7288     1.7672    -0.0271 C.ar    
  21 C21           -2.5030     1.1345    -0.0601 C.ar    
  22 F22           -2.7124     5.2400     0.2975 F       
  23 H23            4.0044     2.6100    -0.9685 H       
  24 H24            3.9740     2.7945     0.8138 H       
  25 H25            2.6464     0.9181     0.9954 H       
  26 H26            2.6820     0.7256    -0.7868 H       
  27 H27            0.6812     5.8872    -0.4641 H       
  28 H28            3.6535     8.9500    -0.7303 H       
  29 H29            5.4265     7.2600    -0.5253 H       
  30 H30            4.8479     4.8836    -0.2790 H       
  31 H31            1.0330    11.1245    -1.0003 H       
  32 H32            2.3378    10.4274    -0.0105 H       
  33 H33            2.3687    10.2441    -1.7807 H       
  34 H34           -0.5001     3.8600     0.2277 H       
  35 H35           -4.7598     3.6339     0.1118 H       
  36 H36           -4.6367     1.1866    -0.0980 H       
  37 H37           -2.4515     0.0601    -0.1567 H       
@<TRIPOS>BOND
   1    1    2 2
   2    1    3 am
   3    1   16 1
   4    3    4 1
   5    3    7 1
   6    4    5 2
   7    5    6 1
   8    5    8 1
   9    6    7 1
  10    6   23 1
  11    6   24 1
  12    7   25 1
  13    7   26 1
  14    8    9 ar
  15    8   13 ar
  16    9   10 ar
  17    9   27 1
  18   10   11 ar
  19   10   14 1
  20   11   12 ar
  21   11   28 1
  22   12   13 ar
  23   12   29 1
  24   13   30 1
  25   14   15 1
  26   15   31 1
  27   15   32 1
  28   15   33 1
  29   16   17 ar
  30   16   21 ar
  31   17   18 ar
  32   17   34 1
  33   18   19 ar
  34   18   22 1
  35   19   20 ar
  36   19   35 1
  37   20   21 ar
  38   20   36 1
  39   21   37 1

#	End of record

