#	Name: ASD01911132
#	Creating user name:	WinNT
#	Creation time:	15. 06. 2019 19:57

#	Modifying user name:	WinNT
#	Modification time:	15. 06. 2019 19:57

#	Program:	/corina/corina34_cracker 3.40 0067  02.08.2006

@<TRIPOS>MOLECULE
ASD01911132
  45   48    0    0    0
SMALL
NO_CHARGES


@<TRIPOS>ATOM
   1 C1            -0.4734     1.1024    -0.3069 C.2     
   2 O2             0.5622     1.6517    -0.6290 O.2     
   3 C3            -0.6013    -0.3637    -0.4315 C.ar    
   4 C4            -0.1854    -1.0087    -1.6008 C.ar    
   5 C5            -0.3089    -2.3817    -1.7089 C.ar    
   6 C6            -0.8417    -3.1146    -0.6648 C.ar    
   7 C7            -1.2549    -2.4814     0.4946 C.ar    
   8 C8            -1.1328    -1.1135     0.6196 C.ar    
   9 F9             0.3349    -0.2925    -2.6213 F       
  10 N10           -1.5027     1.8306     0.1691 N.am    
  11 C11           -2.8031     1.2020     0.4383 C.3     
  12 C12           -3.8918     1.9840    -0.3033 C.3     
  13 C13           -3.8133     3.4602     0.0927 C.3     
  14 C14           -2.4506     4.0270    -0.3123 C.3     
  15 C15           -1.3440     3.2669     0.4345 C.3     
  16 O16           -5.7760     1.3878     1.2925 O.3     
  17 N17           -6.8797     0.8868     1.2466 N.2     
  18 C18           -7.1762     0.5638     0.0177 C.2     
  19 N19           -6.1260     0.9145    -0.7530 N.2     
  20 C20           -5.2457     1.4353     0.0666 C.2     
  21 O21           -8.3261    -0.0169    -0.4060 O.3     
  22 C22           -9.2591    -0.3406     0.5277 C.ar    
  23 C23           -9.0939     0.0646     1.8441 C.ar    
  24 C24          -10.0452    -0.2665     2.7924 C.ar    
  25 C25          -11.1609    -1.0017     2.4272 C.ar    
  26 C26          -11.3257    -1.4055     1.1157 C.ar    
  27 C27          -10.3807    -1.0720     0.1644 C.ar    
  28 F28           -9.8858     0.1269     4.0750 F       
  29 H29            0.0112    -2.8823    -2.6107 H       
  30 H30           -0.9364    -4.1867    -0.7544 H       
  31 H31           -1.6702    -3.0610     1.3058 H       
  32 H32           -1.4516    -0.6225     1.5272 H       
  33 H33           -2.7902     0.1704     0.0863 H       
  34 H34           -3.0041     1.2222     1.5094 H       
  35 H35           -3.7408     1.8872    -1.3785 H       
  36 H36           -4.6026     4.0148    -0.4149 H       
  37 H37           -3.9397     3.5541     1.1712 H       
  38 H38           -2.3132     3.9110    -1.3873 H       
  39 H39           -2.4041     5.0842    -0.0511 H       
  40 H40           -1.4283     3.4522     1.5054 H       
  41 H41           -0.3680     3.5983     0.0801 H       
  42 H42           -8.2237     0.6375     2.1284 H       
  43 H43          -11.9029    -1.2600     3.1682 H       
  44 H44          -12.1964    -1.9787     0.8332 H       
  45 H45          -10.5131    -1.3841    -0.8610 H       
@<TRIPOS>BOND
   1    1    2 2
   2    1    3 1
   3    1   10 am
   4    3    4 ar
   5    3    8 ar
   6    4    5 ar
   7    4    9 1
   8    5    6 ar
   9    5   29 1
  10    6    7 ar
  11    6   30 1
  12    7    8 ar
  13    7   31 1
  14    8   32 1
  15   10   11 1
  16   10   15 1
  17   11   12 1
  18   11   33 1
  19   11   34 1
  20   12   13 1
  21   12   20 1
  22   12   35 1
  23   13   14 1
  24   13   36 1
  25   13   37 1
  26   14   15 1
  27   14   38 1
  28   14   39 1
  29   15   40 1
  30   15   41 1
  31   16   17 1
  32   16   20 1
  33   17   18 2
  34   18   19 1
  35   18   21 1
  36   19   20 2
  37   21   22 1
  38   22   23 ar
  39   22   27 ar
  40   23   24 ar
  41   23   42 1
  42   24   25 ar
  43   24   28 1
  44   25   26 ar
  45   25   43 1
  46   26   27 ar
  47   26   44 1
  48   27   45 1

#	End of record

