#	Name: ASD02030238
#	Creating user name:	WinNT
#	Creation time:	15. 06. 2019 20:14

#	Modifying user name:	WinNT
#	Modification time:	15. 06. 2019 20:14

#	Program:	/corina/corina34_cracker 3.40 0067  02.08.2006

@<TRIPOS>MOLECULE
ASD02030238
  52   55    0    0    0
SMALL
NO_CHARGES


@<TRIPOS>ATOM
   1 N1            -0.9980     2.1315    -1.3669 N.am    
   2 C2            -0.9294     0.7053    -1.7146 C.3     
   3 C3            -1.0894    -0.1202    -0.4319 C.3     
   4 N4            -2.2630     0.3744     0.3015 N.am    
   5 C5            -2.3316     1.8006     0.6492 C.3     
   6 C6            -2.1690     2.6250    -0.6286 C.3     
   7 C7            -0.0022     2.9708    -1.7139 C.2     
   8 C8             1.2205     2.4421    -2.3549 C.2     
   9 N9             2.3089     3.1284    -2.6293 N.2     
  10 N10            1.4185     1.1727    -2.7553 N.2     
  11 C11            2.6201     1.1102    -3.2699 C.2     
  12 N12            3.1649     2.3411    -3.1841 N.pl3   
  13 C13            4.4452     2.7029    -3.6245 C.ar    
  14 O14           -0.1095     4.1626    -1.4997 O.2     
  15 C15           -3.2588    -0.4649     0.6485 C.2     
  16 C16           -3.1759    -1.8975     0.2926 C.ar    
  17 O17           -4.2250    -0.0441     1.2541 O.2     
  18 C18            4.8876     4.0101    -3.4767 C.ar    
  19 C19            6.1523     4.3638    -3.9121 C.ar    
  20 C20            6.9752     3.4143    -4.4946 C.ar    
  21 C21            6.5351     2.1120    -4.6426 C.ar    
  22 C22            5.2756     1.7526    -4.2043 C.ar    
  23 C23           -3.6856     2.1079     1.2920 C.3     
  24 C24           -4.3376    -2.6187     0.0142 C.ar    
  25 F25            6.5845     5.6358    -3.7695 F       
  26 C26           -4.2530    -3.9564    -0.3180 C.ar    
  27 C27           -3.0188    -4.5813    -0.3751 C.ar    
  28 C28           -1.8638    -3.8710    -0.1001 C.ar    
  29 C29           -1.9346    -2.5329     0.2279 C.ar    
  30 Cl30          -5.6966    -4.8563    -0.6642 Cl      
  31 C31           -2.9332    -6.0415    -0.7378 C.3     
  32 H32           -1.7317     0.4593    -2.4103 H       
  33 H33            0.0352     0.4864    -2.1726 H       
  34 H34           -1.2336    -1.1698    -0.6879 H       
  35 H35           -0.1987    -0.0110     0.1868 H       
  36 H36           -1.5294     2.0466     1.3449 H       
  37 H37           -2.0250     3.6743    -0.3711 H       
  38 H38           -3.0584     2.5169    -1.2493 H       
  39 H39            3.0913     0.2316    -3.6854 H       
  40 H40            4.2453     4.7503    -3.0227 H       
  41 H41            7.9622     3.6917    -4.8341 H       
  42 H42            7.1786     1.3737    -5.0978 H       
  43 H43            4.9332     0.7350    -4.3206 H       
  44 H44           -3.7682     1.5735     2.2384 H       
  45 H45           -3.7676     3.1798     1.4718 H       
  46 H46           -4.4857     1.7893     0.6239 H       
  47 H47           -5.3007    -2.1319     0.0589 H       
  48 H48           -0.9042    -4.3643    -0.1459 H       
  49 H49           -1.0320    -1.9799     0.4420 H       
  50 H50           -2.8312    -6.1421    -1.8184 H       
  51 H51           -2.0676    -6.4874    -0.2480 H       
  52 H52           -3.8390    -6.5512    -0.4094 H       
@<TRIPOS>BOND
   1    1    2 1
   2    1    7 am
   3    1    6 1
   4    2    3 1
   5    2   32 1
   6    2   33 1
   7    3    4 1
   8    3   34 1
   9    3   35 1
  10    4    5 1
  11    4   15 am
  12    5    6 1
  13    5   23 1
  14    5   36 1
  15    6   37 1
  16    6   38 1
  17    7    8 1
  18    7   14 2
  19    8    9 2
  20    8   10 1
  21    9   12 1
  22   10   11 2
  23   11   12 1
  24   11   39 1
  25   12   13 1
  26   13   18 ar
  27   13   22 ar
  28   15   16 1
  29   15   17 2
  30   16   24 ar
  31   16   29 ar
  32   18   19 ar
  33   18   40 1
  34   19   20 ar
  35   19   25 1
  36   20   21 ar
  37   20   41 1
  38   21   22 ar
  39   21   42 1
  40   22   43 1
  41   23   44 1
  42   23   45 1
  43   23   46 1
  44   24   26 ar
  45   24   47 1
  46   26   27 ar
  47   26   30 1
  48   27   28 ar
  49   27   31 1
  50   28   29 ar
  51   28   48 1
  52   29   49 1
  53   31   50 1
  54   31   51 1
  55   31   52 1

#	End of record

