#	Name: ASD01320037
#	Creating user name:	WinNT
#	Creation time:	15. 06. 2019 19:15

#	Modifying user name:	WinNT
#	Modification time:	15. 06. 2019 19:15

#	Program:	/corina/corina34_cracker 3.40 0067  02.08.2006

@<TRIPOS>MOLECULE
ASD01320037
  37   38    0    0    0
SMALL
NO_CHARGES


@<TRIPOS>ATOM
   1 C1            -0.0038     1.4099     0.3885 C.ar    
   2 C2             0.0040     0.0276     0.2999 C.ar    
   3 C3             1.2055    -0.6593     0.1800 C.ar    
   4 C4             2.3984     0.0329     0.1486 C.ar    
   5 C5             2.3961     1.4276     0.2376 C.ar    
   6 C6             1.1838     2.1130     0.3581 C.ar    
   7 Cl7            1.1717     3.8454     0.4687 Cl      
   8 F8            -1.1614    -0.6552     0.3306 F       
   9 F9             1.2058    -2.0076     0.0945 F       
  10 C10            3.6688     2.1738     0.2051 C.2     
  11 N11            4.8362     1.5104     0.0893 N.am    
  12 O12            3.6642     3.3868     0.2827 O.2     
  13 C13            5.9986     2.1920     0.0596 C.2     
  14 O14            5.9939     3.4050     0.1372 O.2     
  15 C15            9.4605     1.6546    -0.8044 C.ar    
  16 C16            8.3633     2.2373    -0.1687 C.ar    
  17 C17            8.4604     3.5224     0.3523 C.ar    
  18 C18            9.6395     4.2255     0.2432 C.ar    
  19 C19           10.7423     3.6473    -0.3920 C.ar    
  20 C20           10.6473     2.3525    -0.9108 C.ar    
  21 N21            7.1660     1.5286    -0.0562 N.am    
  22 O22            9.3628     0.3974    -1.3137 O.3     
  23 C23           10.5250    -0.1365    -1.9510 C.3     
  24 F24           11.5800    -0.1836    -1.0334 F       
  25 F25           10.2513    -1.4281    -2.4136 F       
  26 F26           10.8816     0.6795    -3.0300 F       
  27 C27           12.0051     4.3994    -0.5097 C.2     
  28 O28           12.9630     3.8956    -1.0621 O.2     
  29 O29           12.0969     5.6453    -0.0048 O.3     
  30 H30           -0.9411     1.9390     0.4771 H       
  31 H31            3.3321    -0.5019     0.0557 H       
  32 H32            4.8399     0.5424     0.0274 H       
  33 H33            7.6092     3.9705     0.8433 H       
  34 H34            9.7121     5.2241     0.6482 H       
  35 H35           11.4974     1.9027    -1.4022 H       
  36 H36            7.1742     0.5587    -0.0613 H       
  37 H37           12.9450     6.0988    -0.1061 H       
@<TRIPOS>BOND
   1    1    2 ar
   2    1    6 ar
   3    1   30 1
   4    2    3 ar
   5    2    8 1
   6    3    4 ar
   7    3    9 1
   8    4    5 ar
   9    4   31 1
  10    5    6 ar
  11    5   10 1
  12    6    7 1
  13   10   11 am
  14   10   12 2
  15   11   13 am
  16   11   32 1
  17   13   14 2
  18   13   21 am
  19   15   16 ar
  20   15   22 1
  21   15   20 ar
  22   16   17 ar
  23   16   21 1
  24   17   18 ar
  25   17   33 1
  26   18   19 ar
  27   18   34 1
  28   19   20 ar
  29   19   27 1
  30   20   35 1
  31   21   36 1
  32   22   23 1
  33   23   24 1
  34   23   25 1
  35   23   26 1
  36   27   28 2
  37   27   29 1
  38   29   37 1

#	End of record

