#	Name: ASD00172010
#	Creating user name:	WinNT
#	Creation time:	15. 06. 2019 18:33

#	Modifying user name:	WinNT
#	Modification time:	15. 06. 2019 18:33

#	Program:	/corina/corina34_cracker 3.40 0067  02.08.2006

@<TRIPOS>MOLECULE
ASD00172010
  36   38    0    0    0
SMALL
NO_CHARGES


@<TRIPOS>ATOM
   1 C1            -0.0265     1.3320    -0.1400 C.2     
   2 C2            -0.0033     0.0042    -0.1765 C.2     
   3 C3            -1.3276    -0.5835     0.0171 C.2     
   4 C4            -2.3112     0.3520     0.1946 C.2     
   5 S5            -1.6640     1.9238     0.1388 S.3     
   6 N6            -3.6447     0.0594     0.3968 N.pl3   
   7 C7            -1.5766    -2.0246     0.0199 C.2     
   8 C8            -1.8229    -2.7352    -1.2539 C.ar    
   9 O9            -1.5813    -2.6396     1.0709 O.2     
  10 C10           -1.9250    -2.0192    -2.4474 C.ar    
  11 C11           -2.1548    -2.6881    -3.6321 C.ar    
  12 C12           -2.2840    -4.0654    -3.6386 C.ar    
  13 C13           -2.1838    -4.7814    -2.4585 C.ar    
  14 C14           -1.9485    -4.1254    -1.2682 C.ar    
  15 C15            1.3748     1.8951    -0.3467 C.3     
  16 C16            2.3223     0.7098    -0.0729 C.3     
  17 C17            1.4200    -0.4932    -0.4132 C.3     
  18 C18            3.5422     0.7585    -0.9950 C.3     
  19 C19           -2.3264    -6.2815    -2.4749 C.3     
  20 F20           -2.5525    -6.7142    -3.7860 F       
  21 F21           -1.1533    -6.8668    -1.9865 F       
  22 F22           -3.4057    -6.6563    -1.6675 F       
  23 H23           -3.9533    -0.8586     0.3433 H       
  24 H24           -4.2732     0.7718     0.5925 H       
  25 H25           -1.8247    -0.9439    -2.4437 H       
  26 H26           -2.2344    -2.1351    -4.5564 H       
  27 H27           -2.4642    -4.5842    -4.5685 H       
  28 H28           -1.8705    -4.6853    -0.3480 H       
  29 H29            1.4946     2.2474    -1.3712 H       
  30 H30            1.5661     2.7041     0.3583 H       
  31 H31            2.6263     0.6863     0.9736 H       
  32 H32            1.6428    -1.3326     0.2455 H       
  33 H33            1.5519    -0.7830    -1.4557 H       
  34 H34            4.1015     1.6755    -0.8095 H       
  35 H35            4.1808    -0.1026    -0.7986 H       
  36 H36            3.2133     0.7375    -2.0340 H       
@<TRIPOS>BOND
   1    1    2 2
   2    1   15 1
   3    1    5 1
   4    2    3 1
   5    2   17 1
   6    3    4 2
   7    3    7 1
   8    4    5 1
   9    4    6 1
  10    6   23 1
  11    6   24 1
  12    7    8 1
  13    7    9 2
  14    8   10 ar
  15    8   14 ar
  16   10   11 ar
  17   10   25 1
  18   11   12 ar
  19   11   26 1
  20   12   13 ar
  21   12   27 1
  22   13   14 ar
  23   13   19 1
  24   14   28 1
  25   15   16 1
  26   15   29 1
  27   15   30 1
  28   16   17 1
  29   16   18 1
  30   16   31 1
  31   17   32 1
  32   17   33 1
  33   18   34 1
  34   18   35 1
  35   18   36 1
  36   19   20 1
  37   19   21 1
  38   19   22 1

#	End of record

