#	Name: ASD06898001
#	Creating user name:	WinNT
#	Creation time:	15. 06. 2019 21:08

#	Modifying user name:	WinNT
#	Modification time:	15. 06. 2019 21:08

#	Program:	/corina/corina34_cracker 3.40 0067  02.08.2006

@<TRIPOS>MOLECULE
ASD06898001
  35   36    0    0    0
SMALL
NO_CHARGES


@<TRIPOS>ATOM
   1 C1            -0.0184     1.5028     0.0103 C.2     
   2 N2             1.3055    -0.4734    -0.4867 N.3     
   3 C3             0.0021    -0.0041     0.0020 C.3     
   4 C4            -0.2279    -0.5251     1.4221 C.3     
   5 C5            -0.3300    -2.0284     1.3953 C.ar    
   6 C6             0.8077    -2.8000     1.5442 C.ar    
   7 C7             0.7170    -4.1788     1.5205 C.ar    
   8 C8            -0.5175    -4.7888     1.3469 C.ar    
   9 O9            -0.6097    -6.1445     1.3236 O.3     
  10 C10           -0.8156    -6.7906     2.5020 C.ar    
  11 C11           -0.9161    -8.1740     2.5262 C.ar    
  12 C12           -1.1249    -8.8307     3.7239 C.ar    
  13 C13           -1.2340    -8.1066     4.9022 C.ar    
  14 O14           -1.4390    -8.7530     6.0811 O.3     
  15 C15           -1.1334    -6.7231     4.8780 C.ar    
  16 C16           -0.9193    -6.0669     3.6809 C.ar    
  17 C17           -1.6578    -4.0118     1.1976 C.ar    
  18 C18           -1.5618    -2.6334     1.2274 C.ar    
  19 O19            1.0197     2.1211     0.0037 O.2     
  20 O20           -1.1898     2.1580     0.0194 O.3     
  21 I21           -1.2979    -5.6295     6.6573 I       
  22 I22           -1.2775   -10.9199     3.7602 I       
  23 I23           -3.5236    -4.9275     0.9346 I       
  24 I24            2.4414    -5.3470     1.7456 I       
  25 H25            1.4531    -0.1967    -1.4457 H       
  26 H26            2.0536    -0.1430     0.1043 H       
  27 H27           -0.7864    -0.3745    -0.6531 H       
  28 H28            0.6068    -0.2288     2.0574 H       
  29 H29           -1.1526    -0.1051     1.8179 H       
  30 H30            1.7681    -2.3247     1.6789 H       
  31 H31           -0.8316    -8.7376     1.6088 H       
  32 H32           -0.6250    -9.0010     6.5404 H       
  33 H33           -0.8369    -4.9902     3.6626 H       
  34 H34           -2.4494    -2.0283     1.1158 H       
  35 H35           -1.1523     3.1243     0.0245 H       
@<TRIPOS>BOND
   1    1    3 1
   2    1   19 2
   3    1   20 1
   4    2    3 1
   5    2   25 1
   6    2   26 1
   7    3    4 1
   8    3   27 1
   9    4    5 1
  10    4   28 1
  11    4   29 1
  12    5    6 ar
  13    5   18 ar
  14    6    7 ar
  15    6   30 1
  16    7    8 ar
  17    7   24 1
  18    8    9 1
  19    8   17 ar
  20    9   10 1
  21   10   11 ar
  22   10   16 ar
  23   11   12 ar
  24   11   31 1
  25   12   13 ar
  26   12   22 1
  27   13   14 1
  28   13   15 ar
  29   14   32 1
  30   15   16 ar
  31   15   21 1
  32   16   33 1
  33   17   18 ar
  34   17   23 1
  35   18   34 1
  36   20   35 1

#	End of record

