#	Name: ASD04880086
#	Creating user name:	WinNT
#	Creation time:	15. 06. 2019 20:52

#	Modifying user name:	WinNT
#	Modification time:	15. 06. 2019 20:52

#	Program:	/corina/corina34_cracker 3.40 0067  02.08.2006

@<TRIPOS>MOLECULE
ASD04880086
  41   43    0    0    0
SMALL
NO_CHARGES


@<TRIPOS>ATOM
   1 C1            -0.0144     1.2119     0.0087 C.2     
   2 O2             0.0430    -0.0026     0.0318 O.2     
   3 N3             1.1188     1.9392    -0.0487 N.am    
   4 N4             1.1871     3.3235    -0.1919 N.2     
   5 C5             2.3875     3.7911    -0.2211 C.2     
   6 C6             3.3756     2.6546    -0.0866 C.3     
   7 C7             2.4861     1.4016     0.0360 C.3     
   8 C8             2.7426     5.2146    -0.3642 C.ar    
   9 C9             1.7378     6.1791    -0.4810 C.ar    
  10 C10            2.0763     7.5122    -0.6143 C.ar    
  11 C11            3.4169     7.8924    -0.6327 C.ar    
  12 C12            4.4143     6.9357    -0.5173 C.ar    
  13 C13            4.0842     5.6037    -0.3776 C.ar    
  14 O14            3.7478     9.2043    -0.7644 O.3     
  15 C15            5.1405     9.5241    -0.7756 C.3     
  16 O16            1.1011     8.4532    -0.7282 O.3     
  17 C17           -0.2513     7.9924    -0.7021 C.3     
  18 C18           -1.3261     1.8898     0.0375 C.ar    
  19 C19           -2.5031     1.1429    -0.0541 C.ar    
  20 C20           -3.7260     1.7820    -0.0267 C.ar    
  21 C21           -3.7864     3.1645     0.0916 C.ar    
  22 C22           -2.6209     3.9084     0.1822 C.ar    
  23 C23           -1.3942     3.2789     0.1620 C.ar    
  24 F24           -4.9856     3.7861     0.1180 F       
  25 F25           -4.8657     1.0620    -0.1156 F       
  26 H26            4.0099     2.5927    -0.9709 H       
  27 H27            3.9809     2.7785     0.8113 H       
  28 H28            2.6454     0.9080     0.9946 H       
  29 H29            2.6796     0.7141    -0.7875 H       
  30 H30            0.6992     5.8831    -0.4673 H       
  31 H31            5.4520     7.2347    -0.5323 H       
  32 H32            4.8628     4.8613    -0.2830 H       
  33 H33            5.2651    10.6013    -0.8861 H       
  34 H34            5.5953     9.1999     0.1605 H       
  35 H35            5.6235     9.0150    -1.6096 H       
  36 H36           -0.9267     8.8422    -0.8016 H       
  37 H37           -0.4151     7.2996    -1.5275 H       
  38 H38           -0.4438     7.4840     0.2426 H       
  39 H39           -2.4561     0.0679    -0.1465 H       
  40 H40           -2.6735     4.9832     0.2733 H       
  41 H41           -0.4870     3.8600     0.2379 H       
@<TRIPOS>BOND
   1    1    2 2
   2    1    3 am
   3    1   18 1
   4    3    4 1
   5    3    7 1
   6    4    5 2
   7    5    6 1
   8    5    8 1
   9    6    7 1
  10    6   26 1
  11    6   27 1
  12    7   28 1
  13    7   29 1
  14    8    9 ar
  15    8   13 ar
  16    9   10 ar
  17    9   30 1
  18   10   11 ar
  19   10   16 1
  20   11   12 ar
  21   11   14 1
  22   12   13 ar
  23   12   31 1
  24   13   32 1
  25   14   15 1
  26   15   33 1
  27   15   34 1
  28   15   35 1
  29   16   17 1
  30   17   36 1
  31   17   37 1
  32   17   38 1
  33   18   19 ar
  34   18   23 ar
  35   19   20 ar
  36   19   39 1
  37   20   21 ar
  38   20   25 1
  39   21   22 ar
  40   21   24 1
  41   22   23 ar
  42   22   40 1
  43   23   41 1

#	End of record

