#	Name: ASD00170450
#	Creating user name:	WinNT
#	Creation time:	15. 06. 2019 18:32

#	Modifying user name:	WinNT
#	Modification time:	15. 06. 2019 18:32

#	Program:	/corina/corina34_cracker 3.40 0067  02.08.2006

@<TRIPOS>MOLECULE
ASD00170450
  54   57    0    0    0
SMALL
NO_CHARGES


@<TRIPOS>ATOM
   1 C1            -0.8618     2.2336    -0.8088 C.2     
   2 C2            -0.4572     0.9168    -0.7804 C.2     
   3 C3            -1.4195     0.0491    -0.1442 C.2     
   4 C4            -2.5065     0.7009     0.2872 C.2     
   5 S5            -2.3857     2.4149    -0.0679 S.3     
   6 C6            -1.2216    -1.4361     0.0169 C.3     
   7 N7            -0.1306     3.2653    -1.3569 N.pl3   
   8 C8             0.8131     0.4478    -1.3360 C.2     
   9 C9             0.9647     0.2825    -2.7975 C.ar    
  10 O10            1.7451     0.1936    -0.5946 O.2     
  11 C11            2.1920    -0.1100    -3.3349 C.ar    
  12 C12            2.3272    -0.2629    -4.6986 C.ar    
  13 C13            1.2483    -0.0279    -5.5350 C.ar    
  14 C14            0.0282     0.3618    -5.0077 C.ar    
  15 C15           -0.1206     0.5129    -3.6451 C.ar    
  16 Cl16           1.4263    -0.2219    -7.2509 Cl      
  17 C17           -3.6499     0.0644     0.9737 C.ar    
  18 C18           -3.4323    -0.7695     2.0720 C.ar    
  19 C19           -4.5041    -1.3606     2.7082 C.ar    
  20 C20           -5.7925    -1.1287     2.2601 C.ar    
  21 C21           -6.0151    -0.3037     1.1718 C.ar    
  22 C22           -4.9527     0.2987     0.5303 C.ar    
  23 N23           -1.9647    -2.1440    -1.0285 N.pl3   
  24 C24           -1.3106    -2.5599    -2.1905 C.ar    
  25 C25           -3.3938    -2.4156    -0.8553 C.3     
  26 C26           -2.0382    -3.0987    -3.2440 C.ar    
  27 C27           -1.3883    -3.5085    -4.3916 C.ar    
  28 C28           -0.0149    -3.3829    -4.4927 C.ar    
  29 C29            0.7125    -2.8469    -3.4458 C.ar    
  30 C30            0.0683    -2.4303    -2.2974 C.ar    
  31 C31            0.6909    -3.8316    -5.7463 C.3     
  32 H32           -0.1610    -1.6726    -0.0676 H       
  33 H33           -1.5863    -1.7472     0.9959 H       
  34 H34            0.7650     3.1008    -1.6914 H       
  35 H35           -0.5115     4.1559    -1.4083 H       
  36 H36            3.0340    -0.2933    -2.6838 H       
  37 H37            3.2762    -0.5662    -5.1155 H       
  38 H38           -0.8094     0.5440    -5.6647 H       
  39 H39           -1.0725     0.8165    -3.2351 H       
  40 H40           -2.4272    -0.9516     2.4226 H       
  41 H41           -4.3373    -2.0062     3.5578 H       
  42 H42           -6.6281    -1.5940     2.7618 H       
  43 H43           -7.0232    -0.1271     0.8268 H       
  44 H44           -5.1278     0.9424    -0.3191 H       
  45 H45           -3.9741    -1.6189    -1.3207 H       
  46 H46           -3.6422    -3.3677    -1.3244 H       
  47 H47           -3.6285    -2.4624     0.2081 H       
  48 H48           -3.1108    -3.1974    -3.1656 H       
  49 H49           -1.9533    -3.9278    -5.2109 H       
  50 H50            1.7850    -2.7502    -3.5280 H       
  51 H51            0.6369    -2.0114    -1.4803 H       
  52 H52            0.7456    -3.0006    -6.4497 H       
  53 H53            1.6987    -4.1635    -5.4969 H       
  54 H54            0.1387    -4.6551    -6.1992 H       
@<TRIPOS>BOND
   1    1    2 2
   2    1    7 1
   3    1    5 1
   4    2    3 1
   5    2    8 1
   6    3    4 2
   7    3    6 1
   8    4    5 1
   9    4   17 1
  10    6   23 1
  11    6   32 1
  12    6   33 1
  13    7   34 1
  14    7   35 1
  15    8    9 1
  16    8   10 2
  17    9   11 ar
  18    9   15 ar
  19   11   12 ar
  20   11   36 1
  21   12   13 ar
  22   12   37 1
  23   13   14 ar
  24   13   16 1
  25   14   15 ar
  26   14   38 1
  27   15   39 1
  28   17   18 ar
  29   17   22 ar
  30   18   19 ar
  31   18   40 1
  32   19   20 ar
  33   19   41 1
  34   20   21 ar
  35   20   42 1
  36   21   22 ar
  37   21   43 1
  38   22   44 1
  39   23   24 1
  40   23   25 1
  41   24   26 ar
  42   24   30 ar
  43   25   45 1
  44   25   46 1
  45   25   47 1
  46   26   27 ar
  47   26   48 1
  48   27   28 ar
  49   27   49 1
  50   28   29 ar
  51   28   31 1
  52   29   30 ar
  53   29   50 1
  54   30   51 1
  55   31   52 1
  56   31   53 1
  57   31   54 1

#	End of record

