#	Name: ASD03731836
#	Creating user name:	WinNT
#	Creation time:	15. 06. 2019 20:46

#	Modifying user name:	WinNT
#	Modification time:	15. 06. 2019 20:46

#	Program:	/corina/corina34_cracker 3.40 0067  02.08.2006

@<TRIPOS>MOLECULE
ASD03731836
  33   34    0    0    0
SMALL
NO_CHARGES


@<TRIPOS>ATOM
   1 C1            -0.0797     1.4487    -0.4992 C.2     
   2 C2            -0.0434    -0.0199    -0.3734 C.ar    
   3 C3             1.1808    -0.6982    -0.4129 C.ar    
   4 C4             1.2089    -2.0730    -0.2947 C.ar    
   5 C5             0.0255    -2.7823    -0.1368 C.ar    
   6 C6            -1.1932    -2.1113    -0.0975 C.ar    
   7 C7            -1.2309    -0.7391    -0.2084 C.ar    
   8 O8             0.9548     2.0728    -0.6377 O.2     
   9 N9            -1.2597     2.0989    -0.4664 N.am    
  10 S10           -1.3005     3.7484    -0.6078 S.o2    
  11 O11           -2.6797     4.0749    -0.5056 O.2     
  12 O12           -0.3656     4.2062     0.3595 O.2     
  13 C13           -0.6918     4.0741    -2.2853 C.3     
  14 O14            0.0574    -4.1341    -0.0208 O.3     
  15 C15            1.2599    -4.7567    -0.1403 C.ar    
  16 C16            2.0831    -4.9000     0.9703 C.ar    
  17 C17            3.3055    -5.5343     0.8450 C.ar    
  18 C18            3.7081    -6.0248    -0.3838 C.ar    
  19 C19            2.8907    -5.8825    -1.4894 C.ar    
  20 C20            1.6651    -5.2549    -1.3690 C.ar    
  21 F21            1.6898    -4.4200     2.1703 F       
  22 F22            2.3321    -0.0083    -0.5670 F       
  23 Cl23          -2.6682    -3.0053     0.0996 Cl      
  24 H24            2.1524    -2.5979    -0.3253 H       
  25 H25           -2.1770    -0.2195    -0.1725 H       
  26 H26           -2.0852     1.6008    -0.3600 H       
  27 H27           -1.3449     3.5874    -3.0097 H       
  28 H28           -0.6849     5.1488    -2.4670 H       
  29 H29            0.3200     3.6818    -2.3873 H       
  30 H30            3.9462    -5.6465     1.7072 H       
  31 H31            4.6633    -6.5196    -0.4799 H       
  32 H32            3.2083    -6.2660    -2.4477 H       
  33 H33            1.0254    -5.1488    -2.2327 H       
@<TRIPOS>BOND
   1    1    2 1
   2    1    8 2
   3    1    9 am
   4    2    3 ar
   5    2    7 ar
   6    3    4 ar
   7    3   22 1
   8    4    5 ar
   9    4   24 1
  10    5    6 ar
  11    5   14 1
  12    6    7 ar
  13    6   23 1
  14    7   25 1
  15    9   10 am
  16    9   26 1
  17   10   11 2
  18   10   12 2
  19   10   13 1
  20   13   27 1
  21   13   28 1
  22   13   29 1
  23   14   15 1
  24   15   16 ar
  25   15   20 ar
  26   16   17 ar
  27   16   21 1
  28   17   18 ar
  29   17   30 1
  30   18   19 ar
  31   18   31 1
  32   19   20 ar
  33   19   32 1
  34   20   33 1

#	End of record

