#	Name: ASD01916221
#	Creating user name:	WinNT
#	Creation time:	15. 06. 2019 20:06

#	Modifying user name:	WinNT
#	Modification time:	15. 06. 2019 20:06

#	Program:	/corina/corina34_cracker 3.40 0067  02.08.2006

@<TRIPOS>MOLECULE
ASD01916221
  32   34    0    0    0
SMALL
NO_CHARGES


@<TRIPOS>ATOM
   1 C1            -0.0164     1.3616     0.0095 C.2     
   2 N2             0.0021    -0.0041     0.0020 N.pl3   
   3 C3             1.2071    -0.6660    -0.0130 C.2     
   4 C4             2.3940     0.0966    -0.0200 C.2     
   5 C5             2.2979     1.4552    -0.0115 C.2     
   6 N6             1.1032     2.0516     0.0025 N.2     
   7 N7             0.9616    -1.9642    -0.0172 N.2     
   8 C8            -0.3621    -2.1621    -0.0054 C.2     
   9 C9            -0.9787    -0.9623     0.0067 C.2     
  10 C10           -1.0498    -3.5030    -0.0056 C.3     
  11 O11           -2.4659    -3.3121     0.0086 O.3     
  12 C12           -3.2391    -4.4297     0.0103 C.ar    
  13 C13           -4.6219    -4.3180     0.0237 C.ar    
  14 C14           -5.4056    -5.4555     0.0255 C.ar    
  15 C15           -4.8131    -6.7047     0.0139 C.ar    
  16 C16           -3.4352    -6.8188     0.0010 C.ar    
  17 C17           -2.6471    -5.6843    -0.0071 C.ar    
  18 S18           -1.5606     2.2102     0.0214 S.3     
  19 C19           -0.9775     3.9237     0.0280 C.3     
  20 Cl20           3.7411     2.4200    -0.0191 Cl      
  21 H21            3.3595    -0.3873    -0.0314 H       
  22 H22           -2.0446    -0.7890     0.0179 H       
  23 H23           -0.7667    -4.0565    -0.9009 H       
  24 H24           -0.7501    -4.0651     0.8789 H       
  25 H25           -5.0852    -3.3424     0.0331 H       
  26 H26           -6.4821    -5.3690     0.0363 H       
  27 H27           -5.4276    -7.5929     0.0153 H       
  28 H28           -2.9748    -7.7957    -0.0073 H       
  29 H29           -1.5709    -5.7739    -0.0221 H       
  30 H30           -0.3699     4.0974     0.9161 H       
  31 H31           -0.3783     4.1070    -0.8639 H       
  32 H32           -1.8334     4.5987     0.0357 H       
@<TRIPOS>BOND
   1    1    2 1
   2    1    6 2
   3    1   18 1
   4    2    3 1
   5    2    9 1
   6    3    4 1
   7    3    7 2
   8    4    5 2
   9    4   21 1
  10    5    6 1
  11    5   20 1
  12    7    8 1
  13    8    9 2
  14    8   10 1
  15    9   22 1
  16   10   11 1
  17   10   23 1
  18   10   24 1
  19   11   12 1
  20   12   13 ar
  21   12   17 ar
  22   13   14 ar
  23   13   25 1
  24   14   15 ar
  25   14   26 1
  26   15   16 ar
  27   15   27 1
  28   16   17 ar
  29   16   28 1
  30   17   29 1
  31   18   19 1
  32   19   30 1
  33   19   31 1
  34   19   32 1

#	End of record

