#	Name: ASD01917280
#	Creating user name:	WinNT
#	Creation time:	15. 06. 2019 20:09

#	Modifying user name:	WinNT
#	Modification time:	15. 06. 2019 20:09

#	Program:	/corina/corina34_cracker 3.40 0067  02.08.2006

@<TRIPOS>MOLECULE
ASD01917280
  49   52    0    0    0
SMALL
NO_CHARGES


@<TRIPOS>ATOM
   1 C1            -0.0168     1.3889     0.0097 C.ar    
   2 C2             0.0021    -0.0041     0.0020 C.ar    
   3 C3             1.2225    -0.6606    -0.0132 C.ar    
   4 C4             2.3820     0.0991    -0.0202 C.ar    
   5 C5             2.2883     1.4815    -0.0119 C.ar    
   6 N6             1.1168     2.0790     0.0026 N.ar    
   7 C7            -1.3134     2.1059     0.0197 C.2     
   8 O8            -2.3544     1.4791     0.0212 O.2     
   9 N9            -1.3382     3.4534     0.0271 N.am    
  10 C10           -2.6202     4.1624     0.0371 C.3     
  11 C11           -3.4933     3.8196    -1.1827 C.3     
  12 C12           -4.8892     4.4117    -0.9789 C.3     
  13 C13           -4.7967     5.9181    -0.7283 C.3     
  14 C14           -3.8675     6.1707     0.4719 C.3     
  15 C15           -4.2616     5.1684     1.5813 C.3     
  16 C16           -3.4559     3.8638     1.3031 C.3     
  17 C17           -2.4507     5.7047     0.0442 C.3     
  18 C18           -5.0693     8.1039     1.3411 C.2     
  19 C19           -5.1082     9.5081     1.8024 C.ar    
  20 C20           -6.3113    10.0722     2.2298 C.ar    
  21 C21           -6.3406    11.3840     2.6593 C.ar    
  22 C22           -5.1796    12.1391     2.6660 C.ar    
  23 C23           -3.9848    11.5850     2.2436 C.ar    
  24 C24           -3.9412    10.2731     1.8178 C.ar    
  25 O25           -6.0863     7.4383     1.3334 O.2     
  26 N26           -3.9061     7.5620     0.9291 N.am    
  27 Cl27          -7.8354    12.0883     3.1913 Cl      
  28 H28           -0.9212    -0.5643     0.0082 H       
  29 H29            1.2691    -1.7396    -0.0191 H       
  30 H30            3.3489    -0.3819    -0.0317 H       
  31 H31            3.1896     2.0764    -0.0174 H       
  32 H32           -0.5072     3.9538     0.0259 H       
  33 H33           -3.0456     4.2424    -2.0821 H       
  34 H34           -3.5678     2.7370    -1.2851 H       
  35 H35           -5.4913     4.2305    -1.8693 H       
  36 H36           -5.3630     3.9320    -0.1225 H       
  37 H37           -4.3924     6.4108    -1.6126 H       
  38 H38           -5.7890     6.3132    -0.5108 H       
  39 H39           -3.9969     5.5693     2.5597 H       
  40 H40           -5.3310     4.9621     1.5372 H       
  41 H41           -4.1374     3.0342     1.1151 H       
  42 H42           -2.7979     3.6266     2.1391 H       
  43 H43           -1.6922     6.0113     0.7644 H       
  44 H44           -2.2138     6.0765    -0.9527 H       
  45 H45           -7.2171     9.4841     2.2241 H       
  46 H46           -5.2075    13.1651     3.0021 H       
  47 H47           -3.0830    12.1792     2.2509 H       
  48 H48           -3.0065     9.8407     1.4926 H       
  49 H49           -3.0945     8.0931     0.9352 H       
@<TRIPOS>BOND
   1    1    2 ar
   2    1    6 ar
   3    1    7 1
   4    2    3 ar
   5    2   28 1
   6    3    4 ar
   7    3   29 1
   8    4    5 ar
   9    4   30 1
  10    5    6 ar
  11    5   31 1
  12    7    8 2
  13    7    9 am
  14    9   10 1
  15    9   32 1
  16   10   11 1
  17   10   16 1
  18   10   17 1
  19   11   12 1
  20   11   33 1
  21   11   34 1
  22   12   13 1
  23   12   35 1
  24   12   36 1
  25   13   14 1
  26   13   37 1
  27   13   38 1
  28   14   15 1
  29   14   17 1
  30   14   26 1
  31   15   16 1
  32   15   39 1
  33   15   40 1
  34   16   41 1
  35   16   42 1
  36   17   43 1
  37   17   44 1
  38   18   19 1
  39   18   25 2
  40   18   26 am
  41   19   20 ar
  42   19   24 ar
  43   20   21 ar
  44   20   45 1
  45   21   22 ar
  46   21   27 1
  47   22   23 ar
  48   22   46 1
  49   23   24 ar
  50   23   47 1
  51   24   48 1
  52   26   49 1

#	End of record

