#	Name: ASD07930384
#	Creating user name:	WinNT
#	Creation time:	15. 06. 2019 21:12

#	Modifying user name:	WinNT
#	Modification time:	15. 06. 2019 21:12

#	Program:	/corina/corina34_cracker 3.40 0067  02.08.2006

@<TRIPOS>MOLECULE
ASD07930384
  49   50    0    0    0
SMALL
NO_CHARGES


@<TRIPOS>ATOM
   1 N1            -0.0057     1.4466     0.2177 N.pl3   
   2 C2             0.0021    -0.0041     0.0020 C.3     
   3 C3             0.8307    -0.6739     1.1075 C.3     
   4 N4             2.1540     1.7078     1.1108 N.am    
   5 C5             1.1735     2.1400     0.2472 C.2     
   6 C6            -1.4106    -0.5271     0.0446 C.ar    
   7 C7            -2.1688    -0.3775     1.1930 C.ar    
   8 C8             2.8671     2.6371     1.9907 C.3     
   9 C9             0.6227    -0.3149    -1.3615 C.3     
  10 C10           -3.2513    -1.6325    -1.0257 C.ar    
  11 C11           -4.0096    -1.4877     0.1283 C.ar    
  12 C12           -3.4689    -0.8578     1.2348 C.ar    
  13 C13           -1.9493    -1.1502    -1.0643 C.ar    
  14 N14           -3.7953    -2.2692    -2.1453 N.pl3   
  15 F15           -1.6414     0.2369     2.2744 F       
  16 F16           -4.2075    -0.7109     2.3565 F       
  17 S17            2.4900     0.0757     1.1071 S.o2    
  18 O18            3.1489    -0.1567     2.3445 O.2     
  19 O19            3.1459    -0.1516    -0.1328 O.2     
  20 N20            1.3655     3.1937    -0.5313 N.2     
  21 O21            0.5933     4.6700    -2.1570 O.3     
  22 C22           -0.4823     5.0433    -3.0205 C.3     
  23 C23           -1.7192     5.3716    -2.1819 C.3     
  24 C24           -0.0782     6.2729    -3.8364 C.3     
  25 C25           -0.8013     3.8850    -3.9679 C.3     
  26 C26            0.3976     3.5961    -1.3636 C.2     
  27 O27           -0.6592     2.9933    -1.4049 O.2     
  28 H28           -0.8469     1.9151     0.3354 H       
  29 H29            0.3539    -0.5113     2.0742 H       
  30 H30            0.9100    -1.7431     0.9111 H       
  31 H31            2.4921     3.6481     1.8317 H       
  32 H32            2.7066     2.3493     3.0297 H       
  33 H33            3.9331     2.6053     1.7654 H       
  34 H34            1.6452     0.0617    -1.3896 H       
  35 H35            0.6281    -1.3932    -1.5209 H       
  36 H36            0.0370     0.1654    -2.1453 H       
  37 H37           -5.0205    -1.8662     0.1619 H       
  38 H38           -1.3583    -1.2621    -1.9613 H       
  39 H39           -4.7029    -2.6102    -2.1161 H       
  40 H40           -3.2650    -2.3701    -2.9512 H       
  41 H41           -1.4919     6.1969    -1.5070 H       
  42 H42           -2.5397     5.6564    -2.8405 H       
  43 H43           -2.0071     4.4956    -1.6006 H       
  44 H44            0.8029     6.0390    -4.4339 H       
  45 H45           -0.8987     6.5576    -4.4951 H       
  46 H46            0.1490     7.0981    -3.1615 H       
  47 H47           -1.0892     3.0090    -3.3866 H       
  48 H48           -1.6218     4.1697    -4.6265 H       
  49 H49            0.0798     3.6510    -4.5653 H       
@<TRIPOS>BOND
   1    1    2 1
   2    1    5 1
   3    1   28 1
   4    2    3 1
   5    2    6 1
   6    2    9 1
   7    3   17 1
   8    3   29 1
   9    3   30 1
  10    4    5 1
  11    4    8 1
  12    4   17 am
  13    5   20 2
  14    6   13 ar
  15    6    7 ar
  16    7   15 1
  17    7   12 ar
  18    8   31 1
  19    8   32 1
  20    8   33 1
  21    9   34 1
  22    9   35 1
  23    9   36 1
  24   10   11 ar
  25   10   14 1
  26   10   13 ar
  27   11   12 ar
  28   11   37 1
  29   12   16 1
  30   13   38 1
  31   14   39 1
  32   14   40 1
  33   17   18 2
  34   17   19 2
  35   20   26 1
  36   21   22 1
  37   21   26 1
  38   22   23 1
  39   22   24 1
  40   22   25 1
  41   23   41 1
  42   23   42 1
  43   23   43 1
  44   24   44 1
  45   24   45 1
  46   24   46 1
  47   25   47 1
  48   25   48 1
  49   25   49 1
  50   26   27 2

#	End of record

