#	Name: ASD06710050
#	Creating user name:	WinNT
#	Creation time:	15. 06. 2019 21:08

#	Modifying user name:	WinNT
#	Modification time:	15. 06. 2019 21:08

#	Program:	/corina/corina34_cracker 3.40 0067  02.08.2006

@<TRIPOS>MOLECULE
ASD06710050
  58   61    0    0    0
SMALL
NO_CHARGES


@<TRIPOS>ATOM
   1 N1            -0.1455     1.3905    -0.3833 N.am    
   2 C2             0.0158     0.0609    -0.2334 C.2     
   3 C3            -1.2975    -0.4508     0.3244 C.3     
   4 N4            -2.1237     0.7638     0.4344 N.am    
   5 C5            -1.3636     1.7865     0.0030 C.2     
   6 C6            -3.4341     0.8393     0.8984 C.ar    
   7 C7            -3.6807     0.9528     2.2629 C.ar    
   8 C8            -4.4933     0.8065    -0.0058 C.ar    
   9 C9            -5.7814     0.8803     0.4394 C.ar    
  10 C10           -6.0443     0.9896     1.8113 C.ar    
  11 C11           -4.9783     1.0276     2.7241 C.ar    
  12 C12           -7.4276     1.0695     2.2915 C.2     
  13 O13           -7.6526     1.1641     3.4798 O.2     
  14 C14           -8.5695     1.0342     1.3087 C.3     
  15 N15           -9.8432     1.1286     2.0345 N.3     
  16 F16           -5.2226     1.1329     4.0487 F       
  17 C17            0.8406     2.2507    -0.8760 C.ar    
  18 C18            1.7272     2.8643     0.0018 C.ar    
  19 C19            0.9357     2.4859    -2.2434 C.ar    
  20 C20            1.9055     3.3324    -2.7324 C.ar    
  21 C21            2.7950     3.9556    -1.8525 C.ar    
  22 C22            2.6999     3.7123    -0.4797 C.ar    
  23 O23            1.0052    -0.5905    -0.4917 O.2     
  24 C24           -1.9379    -1.4521    -0.6390 C.3     
  25 C25           -1.0870    -1.0851     1.7008 C.3     
  26 S26           -1.8989     3.4117    -0.0551 S.2     
  27 C27          -10.9676     1.3363     1.1037 C.3     
  28 C28          -11.9758     0.1926     1.3422 C.3     
  29 C29          -11.6385    -0.2760     2.7821 C.3     
  30 C30          -10.0999    -0.0997     2.8162 C.3     
  31 C31            3.8052     4.8362    -2.3572 C.1     
  32 N32            4.6066     5.5347    -2.7575 N.1     
  33 C33            3.6562     4.3820     0.4732 C.3     
  34 F34            3.3644     3.9850     1.7825 F       
  35 F35            4.9673     4.0121     0.1550 F       
  36 F36            3.5246     5.7708     0.3667 F       
  37 H37           -2.8567     0.9819     2.9604 H       
  38 H38           -4.2944     0.7227    -1.0640 H       
  39 H39           -6.5986     0.8549    -0.2663 H       
  40 H40           -8.4813     1.8735     0.6189 H       
  41 H41           -8.5386     0.0992     0.7493 H       
  42 H42            1.6528     2.6760     1.0627 H       
  43 H43            0.2483     2.0038    -2.9226 H       
  44 H44            1.9789     3.5143    -3.7944 H       
  45 H45           -1.2755    -2.3082    -0.7667 H       
  46 H46           -2.8918    -1.7882    -0.2327 H       
  47 H47           -2.1027    -0.9731    -1.6042 H       
  48 H48           -0.6545    -0.3486     2.3780 H       
  49 H49           -2.0452    -1.4231     2.0954 H       
  50 H50           -0.4114    -1.9356     1.6094 H       
  51 H51          -11.4423     2.2968     1.3040 H       
  52 H52          -10.6081     1.3053     0.0751 H       
  53 H53          -12.9993     0.5634     1.2873 H       
  54 H54          -11.8186    -0.6151     0.6273 H       
  55 H55          -12.1211     0.3612     3.5232 H       
  56 H56          -11.9152    -1.3202     2.9278 H       
  57 H57           -9.6096    -0.9549     2.3511 H       
  58 H58           -9.7548     0.0246     3.8426 H       
@<TRIPOS>BOND
   1    1    2 am
   2    1   17 1
   3    1    5 am
   4    2    3 1
   5    2   23 2
   6    3    4 1
   7    3   24 1
   8    3   25 1
   9    4    5 am
  10    4    6 1
  11    5   26 2
  12    6    7 ar
  13    6    8 ar
  14    7   11 ar
  15    7   37 1
  16    8    9 ar
  17    8   38 1
  18    9   10 ar
  19    9   39 1
  20   10   11 ar
  21   10   12 1
  22   11   16 1
  23   12   13 2
  24   12   14 1
  25   14   15 1
  26   14   40 1
  27   14   41 1
  28   15   27 1
  29   15   30 1
  30   17   18 ar
  31   17   19 ar
  32   18   22 ar
  33   18   42 1
  34   19   20 ar
  35   19   43 1
  36   20   21 ar
  37   20   44 1
  38   21   22 ar
  39   21   31 1
  40   22   33 1
  41   24   45 1
  42   24   46 1
  43   24   47 1
  44   25   48 1
  45   25   49 1
  46   25   50 1
  47   27   28 1
  48   27   51 1
  49   27   52 1
  50   28   29 1
  51   28   53 1
  52   28   54 1
  53   29   30 1
  54   29   55 1
  55   29   56 1
  56   30   57 1
  57   30   58 1
  58   31   32 3
  59   33   34 1
  60   33   35 1
  61   33   36 1

#	End of record

