#	Name: ASD01560042
#	Creating user name:	WinNT
#	Creation time:	15. 06. 2019 19:22

#	Modifying user name:	WinNT
#	Modification time:	15. 06. 2019 19:22

#	Program:	/corina/corina34_cracker 3.40 0067  02.08.2006

@<TRIPOS>MOLECULE
ASD01560042
  38   41    0    0    0
SMALL
NO_CHARGES


@<TRIPOS>ATOM
   1 F1             0.0021    -0.0041     0.0020 F       
   2 C2            -0.0162     1.3468     0.0094 C.ar    
   3 C3             1.1754     2.0535     0.0019 C.ar    
   4 C4             1.1619     3.4331     0.0099 C.ar    
   5 C5            -0.0538     4.1162     0.0251 C.ar    
   6 C6            -1.2506     3.4003     0.0323 C.ar    
   7 C7            -1.2266     2.0208     0.0189 C.ar    
   8 C8            -0.0739     5.5978     0.0343 C.2     
   9 C9             0.6504     6.4368     0.8993 C.2     
  10 N10            0.3768     7.6807     0.6056 N.2     
  11 N11           -0.5323     7.7137    -0.4571 N.am    
  12 C12           -0.8088     6.4193    -0.8160 C.2     
  13 N13           -1.6638     6.1636    -1.8240 N.2     
  14 C14           -2.2407     7.1528    -2.4724 C.2     
  15 S15           -3.3578     6.8037    -3.7896 S.3     
  16 C16           -3.3040     4.9945    -3.7760 C.3     
  17 C17           -4.2112     4.4569    -4.8527 C.2     
  18 N18           -5.5697     4.4774    -4.6815 N.am    
  19 C19           -6.3880     3.9999    -5.6367 C.2     
  20 O20           -7.5913     4.0275    -5.4638 O.2     
  21 N21           -5.8938     3.4925    -6.7812 N.am    
  22 C22           -4.5621     3.4541    -6.9887 C.2     
  23 O23           -4.1145     2.9947    -8.0240 O.2     
  24 C24           -3.6887     3.9577    -5.9936 C.2     
  25 Cl25          -1.9695     3.9224    -6.2322 Cl      
  26 N26           -1.9772     8.4560    -2.1276 N.am    
  27 C27           -1.1195     8.7283    -1.1229 C.2     
  28 O28           -0.8836     9.8803    -0.8147 O.2     
  29 H29            2.1164     1.5236    -0.0100 H       
  30 H30            2.0914     3.9831     0.0047 H       
  31 H31           -2.1946     3.9248     0.0444 H       
  32 H32           -2.1529     1.4655     0.0240 H       
  33 H33            1.3221     6.1077     1.6784 H       
  34 H34           -2.2832     4.6599    -3.9605 H       
  35 H35           -3.6364     4.6284    -2.8046 H       
  36 H36           -5.9456     4.8393    -3.8637 H       
  37 H37           -6.4983     3.1528    -7.4595 H       
  38 H38           -2.4055     9.1809    -2.6092 H       
@<TRIPOS>BOND
   1    1    2 1
   2    2    3 ar
   3    2    7 ar
   4    3    4 ar
   5    3   29 1
   6    4    5 ar
   7    4   30 1
   8    5    6 ar
   9    5    8 1
  10    6    7 ar
  11    6   31 1
  12    7   32 1
  13    8    9 1
  14    8   12 2
  15    9   10 2
  16    9   33 1
  17   10   11 1
  18   11   12 1
  19   11   27 am
  20   12   13 1
  21   13   14 2
  22   14   15 1
  23   14   26 1
  24   15   16 1
  25   16   17 1
  26   16   34 1
  27   16   35 1
  28   17   18 1
  29   17   24 2
  30   18   19 am
  31   18   36 1
  32   19   20 2
  33   19   21 am
  34   21   22 am
  35   21   37 1
  36   22   23 2
  37   22   24 1
  38   24   25 1
  39   26   27 am
  40   26   38 1
  41   27   28 2

#	End of record

