#	Name: ASD00960154
#	Creating user name:	WinNT
#	Creation time:	15. 06. 2019 18:53

#	Modifying user name:	WinNT
#	Modification time:	15. 06. 2019 18:53

#	Program:	/corina/corina34_cracker 3.40 0067  02.08.2006

@<TRIPOS>MOLECULE
ASD00960154
  42   45    0    0    0
SMALL
NO_CHARGES


@<TRIPOS>ATOM
   1 C1            -0.2209     0.4980    -0.5116 C.3     
   2 C2            -0.5530     1.3573     0.7284 C.3     
   3 O3            -1.8437     1.9378     0.4403 O.3     
   4 C4            -1.7924     2.3056    -0.9554 C.3     
   5 C5            -3.2069     2.4504    -1.5203 C.3     
   6 C6            -0.6298     0.4928     1.9604 C.2     
   7 C7             0.4259     0.1252     2.7249 C.2     
   8 N8            -1.7657    -0.0320     2.4778 N.pl3   
   9 C9            -1.4442    -0.7625     3.6020 C.2     
  10 C10           -0.0617    -0.6766     3.7770 C.2     
  11 N11           -3.1126     0.0361     2.0926 N.2     
  12 C12           -4.0243    -0.5825     2.7925 C.2     
  13 N13           -3.7261    -1.2905     3.8794 N.2     
  14 C14           -2.4798    -1.4053     4.3105 C.2     
  15 N15           -2.1971    -2.1464     5.4412 N.pl3   
  16 C16           -1.0526     1.1351    -1.6474 C.3     
  17 O17           -0.1992     1.6250    -2.6836 O.3     
  18 C18           -0.6452    -0.9546    -0.2865 C.3     
  19 O19           -3.8558     3.5625    -0.9005 O.3     
  20 O20            1.1743     0.5701    -0.8117 O.3     
  21 C21            0.7321    -1.3020     4.8501 C.2     
  22 S22            1.9299    -0.4808     5.8474 S.3     
  23 C23            2.2378    -1.9865     6.7100 C.2     
  24 C24            1.4481    -2.9331     6.1956 C.2     
  25 N25            0.6566    -2.5511     5.2180 N.2     
  26 H26            0.1944     2.1399     0.8590 H       
  27 H27           -1.2351     3.2336    -1.0831 H       
  28 H28           -3.1533     2.6145    -2.5965 H       
  29 H29           -3.7733     1.5410    -1.3192 H       
  30 H30            1.4576     0.3975     2.5581 H       
  31 H31           -5.0559    -0.5172     2.4793 H       
  32 H32           -2.8911    -2.6826     5.8556 H       
  33 H33           -1.3046    -2.1308     5.8208 H       
  34 H34           -1.7666     0.4153    -2.0476 H       
  35 H35           -0.6666     2.0888    -3.3917 H       
  36 H36           -0.0902    -1.3689     0.5552 H       
  37 H37           -1.7131    -0.9921    -0.0714 H       
  38 H38           -0.4345    -1.5378    -1.1830 H       
  39 H39           -4.7588     3.7142    -1.2114 H       
  40 H40            1.4335     0.0721    -1.5990 H       
  41 H41            2.9442    -2.1210     7.5158 H       
  42 H42            1.4566    -3.9487     6.5628 H       
@<TRIPOS>BOND
   1    1   18 1
   2    1   20 1
   3    1    2 1
   4    1   16 1
   5    2    3 1
   6    2    6 1
   7    2   26 1
   8    3    4 1
   9    4   16 1
  10    4    5 1
  11    4   27 1
  12    5   19 1
  13    5   28 1
  14    5   29 1
  15    6    7 2
  16    6    8 1
  17    7   10 1
  18    7   30 1
  19    8    9 1
  20    8   11 1
  21    9   10 2
  22    9   14 1
  23   10   21 1
  24   11   12 2
  25   12   13 1
  26   12   31 1
  27   13   14 2
  28   14   15 1
  29   15   32 1
  30   15   33 1
  31   16   17 1
  32   16   34 1
  33   17   35 1
  34   18   36 1
  35   18   37 1
  36   18   38 1
  37   19   39 1
  38   20   40 1
  39   21   22 1
  40   21   25 2
  41   22   23 1
  42   23   24 2
  43   23   41 1
  44   24   25 1
  45   24   42 1

#	End of record

