#	Name: ASD02500497
#	Creating user name:	WinNT
#	Creation time:	15. 06. 2019 20:22

#	Modifying user name:	WinNT
#	Modification time:	15. 06. 2019 20:22

#	Program:	/corina/corina34_cracker 3.40 0067  02.08.2006

@<TRIPOS>MOLECULE
ASD02500497
  74   78    0    0    0
SMALL
NO_CHARGES


@<TRIPOS>ATOM
   1 N1             1.5983     4.1715    -1.1369 N.ar    
   2 C2             2.5907     3.9543    -0.3085 C.ar    
   3 C3             3.7475     3.2885    -0.7086 C.ar    
   4 C4             3.8676     2.8432    -1.9941 C.ar    
   5 C5             2.7997     3.0778    -2.8809 C.ar    
   6 C6             2.8512     2.6500    -4.2170 C.ar    
   7 C7             1.7976     2.8966    -5.0436 C.ar    
   8 C8             0.6683     3.5687    -4.5813 C.ar    
   9 C9             0.5848     3.9974    -3.2922 C.ar    
  10 C10            1.6520     3.7617    -2.4083 C.ar    
  11 S11           -0.8552     4.8456    -2.7338 S.o2    
  12 O12           -0.3983     6.0030    -2.0475 O.2     
  13 O13           -1.7442     4.8988    -3.8410 O.2     
  14 N14           -1.5807     3.8841    -1.5974 N.am    
  15 C15           -2.0937     2.6439    -1.9611 C.ar    
  16 C16           -1.8224     1.5238    -1.1800 C.ar    
  17 C17           -2.3287     0.2951    -1.5373 C.ar    
  18 C18           -3.1161     0.1724    -2.6859 C.ar    
  19 C19           -3.3867     1.2990    -3.4680 C.ar    
  20 C20           -2.8822     2.5260    -3.1023 C.ar    
  21 C21           -3.6599    -1.1434    -3.0720 C.2     
  22 O22           -4.7995    -1.2323    -3.4868 O.2     
  23 N23           -2.8937    -2.2470    -2.9650 N.am    
  24 C24           -3.3939    -3.4697    -3.4482 C.3     
  25 C25           -3.4394    -4.5242    -2.3132 C.3     
  26 N26           -2.0834    -4.9360    -2.0129 N.3     
  27 C27           -1.4323    -4.2029    -0.9074 C.3     
  28 C28           -1.6721    -2.6945    -0.9484 C.3     
  29 C29           -1.5559    -2.1287    -2.3500 C.3     
  30 C30           -2.0094    -6.3872    -1.7978 C.3     
  31 C31           -2.3244    -7.1028    -3.0861 C.ar    
  32 C32           -1.3082    -7.4147    -3.9688 C.ar    
  33 C33           -1.5989    -8.0733    -5.1544 C.ar    
  34 C34           -2.9100    -8.4172    -5.4509 C.ar    
  35 C35           -3.9223    -8.1032    -4.5652 C.ar    
  36 C36           -3.6292    -7.4515    -3.3812 C.ar    
  37 O37           -0.6012    -8.3808    -6.0245 O.3     
  38 C38           -0.9606    -9.1362    -7.1830 C.3     
  39 C39            0.0692    -8.8955    -8.2886 C.3     
  40 C40           -0.9927   -10.6249    -6.8314 C.3     
  41 H41            2.5097     4.3009     0.7111 H       
  42 H42            4.5486     3.1252    -0.0030 H       
  43 H43            4.7573     2.3257    -2.3214 H       
  44 H44            3.7216     2.1287    -4.5871 H       
  45 H45            1.8381     2.5671    -6.0713 H       
  46 H46           -0.1541     3.7528    -5.2567 H       
  47 H47           -1.6478     4.1860    -0.6780 H       
  48 H48           -1.2137     1.6193    -0.2930 H       
  49 H49           -2.1176    -0.5735    -0.9312 H       
  50 H50           -3.9944     1.2073    -4.3561 H       
  51 H51           -3.0949     3.3976    -3.7035 H       
  52 H52           -4.4002    -3.3176    -3.8385 H       
  53 H53           -2.7488    -3.8309    -4.2491 H       
  54 H54           -3.8943    -4.0863    -1.4246 H       
  55 H55           -4.0207    -5.3871    -2.6381 H       
  56 H56           -1.8107    -4.5904     0.0385 H       
  57 H57           -0.3589    -4.3866    -0.9517 H       
  58 H58           -2.6702    -2.4853    -0.5636 H       
  59 H59           -0.9392    -2.2033    -0.3084 H       
  60 H60           -0.8294    -2.7022    -2.9257 H       
  61 H61           -1.2565    -1.0815    -2.3086 H       
  62 H62           -1.0051    -6.6551    -1.4696 H       
  63 H63           -2.7309    -6.6787    -1.0345 H       
  64 H64           -0.2886    -7.1456    -3.7359 H       
  65 H65           -3.1389    -8.9297    -6.3736 H       
  66 H66           -4.9430    -8.3703    -4.7957 H       
  67 H67           -4.4215    -7.2111    -2.6877 H       
  68 H68           -1.9456    -8.8235    -7.5295 H       
  69 H69            1.0542    -9.2082    -7.9420 H       
  70 H70           -0.2049    -9.4717    -9.1723 H       
  71 H71            0.0921    -7.8349    -8.5391 H       
  72 H72           -1.7264   -10.7965    -6.0437 H       
  73 H73           -1.2669   -11.2012    -7.7150 H       
  74 H74           -0.0078   -10.9377    -6.4848 H       
@<TRIPOS>BOND
   1    1    2 ar
   2    1   10 ar
   3    2    3 ar
   4    2   41 1
   5    3    4 ar
   6    3   42 1
   7    4    5 ar
   8    4   43 1
   9    5    6 ar
  10    5   10 ar
  11    6    7 ar
  12    6   44 1
  13    7    8 ar
  14    7   45 1
  15    8    9 ar
  16    8   46 1
  17    9   10 ar
  18    9   11 1
  19   11   12 2
  20   11   13 2
  21   11   14 am
  22   14   15 1
  23   14   47 1
  24   15   16 ar
  25   15   20 ar
  26   16   17 ar
  27   16   48 1
  28   17   18 ar
  29   17   49 1
  30   18   19 ar
  31   18   21 1
  32   19   20 ar
  33   19   50 1
  34   20   51 1
  35   21   22 2
  36   21   23 am
  37   23   24 1
  38   23   29 1
  39   24   25 1
  40   24   52 1
  41   24   53 1
  42   25   26 1
  43   25   54 1
  44   25   55 1
  45   26   27 1
  46   26   30 1
  47   27   28 1
  48   27   56 1
  49   27   57 1
  50   28   29 1
  51   28   58 1
  52   28   59 1
  53   29   60 1
  54   29   61 1
  55   30   31 1
  56   30   62 1
  57   30   63 1
  58   31   32 ar
  59   31   36 ar
  60   32   33 ar
  61   32   64 1
  62   33   34 ar
  63   33   37 1
  64   34   35 ar
  65   34   65 1
  66   35   36 ar
  67   35   66 1
  68   36   67 1
  69   37   38 1
  70   38   39 1
  71   38   40 1
  72   38   68 1
  73   39   69 1
  74   39   70 1
  75   39   71 1
  76   40   72 1
  77   40   73 1
  78   40   74 1

#	End of record

