#	Name: ASD01913513
#	Creating user name:	WinNT
#	Creation time:	15. 06. 2019 20:01

#	Modifying user name:	WinNT
#	Modification time:	15. 06. 2019 20:01

#	Program:	/corina/corina34_cracker 3.40 0067  02.08.2006

@<TRIPOS>MOLECULE
ASD01913513
  41   43    0    0    0
SMALL
NO_CHARGES


@<TRIPOS>ATOM
   1 C1            -0.3784     0.7111    -1.9323 C.ar    
   2 C2             0.0205     0.0147    -0.7939 C.ar    
   3 C3             1.3232    -0.4760    -0.7440 C.ar    
   4 N4             2.1281    -0.2643    -1.7719 N.ar    
   5 C5             1.7123     0.3999    -2.8315 C.ar    
   6 N6             0.4878     0.8800    -2.9173 N.ar    
   7 C7            -2.1264     0.4102     0.2517 C.ar    
   8 C8            -3.2732    -0.3714     0.1802 C.ar    
   9 N9            -4.4687     0.1834     0.1671 N.ar    
  10 C10           -4.6301     1.4903     0.2210 C.ar    
  11 C11           -3.5335     2.3408     0.2940 C.ar    
  12 C12           -2.2539     1.7951     0.3102 C.ar    
  13 N13           -3.7138     3.7268     0.3500 N.am    
  14 C14           -2.8738     4.4866     1.0804 C.2     
  15 N15           -0.8629    -0.1862     0.2704 N.pl3   
  16 C16           -3.1211     5.9373     1.2193 C.ar    
  17 O17           -1.9128     3.9790     1.6250 O.2     
  18 C18           -2.2531     6.7270     1.9750 C.ar    
  19 C19           -2.4889     8.0807     2.1006 C.ar    
  20 C20           -3.5828     8.6560     1.4796 C.ar    
  21 C21           -4.4482     7.8787     0.7283 C.ar    
  22 C22           -4.2205     6.5244     0.5905 C.ar    
  23 Br23          -5.9409     8.6754    -0.1160 Br      
  24 C24           -0.4641    -1.0219     1.4056 C.3     
  25 C25            0.2129    -0.1518     2.4665 C.3     
  26 H26           -1.3815     1.1035    -2.0113 H       
  27 H27            1.6708    -1.0209     0.1213 H       
  28 H28            2.3950     0.5554    -3.6538 H       
  29 H29           -3.1837    -1.4467     0.1344 H       
  30 H30           -5.6270     1.9055     0.2080 H       
  31 H31           -1.3819     2.4297     0.3668 H       
  32 H32           -4.4433     4.1410    -0.1368 H       
  33 H33           -1.3987     6.2793     2.4609 H       
  34 H34           -1.8180     8.6924     2.6855 H       
  35 H35           -3.7630     9.7160     1.5814 H       
  36 H36           -4.8958     5.9188     0.0044 H       
  37 H37           -1.3462    -1.4973     1.8345 H       
  38 H38            0.2326    -1.7882     1.0657 H       
  39 H39            0.5096    -0.7735     3.3112 H       
  40 H40            1.0950     0.3236     2.0377 H       
  41 H41           -0.4837     0.6146     2.8065 H       
@<TRIPOS>BOND
   1    1    2 ar
   2    1    6 ar
   3    1   26 1
   4    2    3 ar
   5    2   15 1
   6    3    4 ar
   7    3   27 1
   8    4    5 ar
   9    5    6 ar
  10    5   28 1
  11    7    8 ar
  12    7   12 ar
  13    7   15 1
  14    8    9 ar
  15    8   29 1
  16    9   10 ar
  17   10   11 ar
  18   10   30 1
  19   11   12 ar
  20   11   13 1
  21   12   31 1
  22   13   14 am
  23   13   32 1
  24   14   16 1
  25   14   17 2
  26   15   24 1
  27   16   18 ar
  28   16   22 ar
  29   18   19 ar
  30   18   33 1
  31   19   20 ar
  32   19   34 1
  33   20   21 ar
  34   20   35 1
  35   21   22 ar
  36   21   23 1
  37   22   36 1
  38   24   25 1
  39   24   37 1
  40   24   38 1
  41   25   39 1
  42   25   40 1
  43   25   41 1

#	End of record

