#	Name: ASD01150962
#	Creating user name:	WinNT
#	Creation time:	15. 06. 2019 19:05

#	Modifying user name:	WinNT
#	Modification time:	15. 06. 2019 19:05

#	Program:	/corina/corina34_cracker 3.40 0067  02.08.2006

@<TRIPOS>MOLECULE
ASD01150962
  62   65    0    0    0
SMALL
NO_CHARGES


@<TRIPOS>ATOM
   1 N1            -0.0170     1.4004     0.0097 N.am    
   2 C2             0.0021    -0.0041     0.0020 C.2     
   3 N3             1.0895    -0.7694    -0.0120 N.2     
   4 C4             0.7328    -2.0403    -0.0151 C.2     
   5 N5            -0.6405    -2.1114    -0.0027 N.pl3   
   6 C6            -1.1059    -0.8299     0.0137 C.2     
   7 O7            -2.4045    -0.4410     0.0304 O.3     
   8 C8            -3.0131    -0.2665     1.3116 C.3     
   9 C9             1.6475    -3.1844    -0.0302 C.2     
  10 O10            2.9815    -2.9816    -0.0419 O.3     
  11 C11           -1.4144    -3.2791    -0.0020 C.ar    
  12 C12           -1.3657    -4.1455     1.0820 C.ar    
  13 C13           -2.1303    -5.2956     1.0799 C.ar    
  14 C14           -2.9438    -5.5848    -0.0003 C.ar    
  15 C15           -2.9941    -4.7243    -1.0816 C.ar    
  16 C16           -2.2363    -3.5696    -1.0829 C.ar    
  17 C17            1.1409     2.0901     0.0024 C.2     
  18 O18            2.1996     1.4979    -0.0109 O.2     
  19 C19            1.1205     3.5969     0.0107 C.3     
  20 O20            1.2046    -4.3173    -0.0322 O.2     
  21 C21            3.8141    -4.1429    -0.0563 C.3     
  22 C22            5.2835    -3.7167    -0.0680 C.3     
  23 C23            3.5372    -4.9845     1.1911 C.3     
  24 C24            3.5132    -4.9707    -1.3072 C.3     
  25 O25            6.1162    -4.8780    -0.0824 O.3     
  26 C26            7.5157    -4.5895    -0.0943 C.3     
  27 O27            2.4576     4.0974     0.1181 O.3     
  28 C28            2.6403     5.4180    -0.1563 C.ar    
  29 C29            1.6770     6.1401    -0.8503 C.ar    
  30 O30            0.5261     5.5449    -1.2671 O.3     
  31 C31            0.5183     4.1136    -1.3030 C.3     
  32 C32            3.8037     6.0459     0.2634 C.ar    
  33 C33            4.0044     7.3857    -0.0094 C.ar    
  34 C34            3.0468     8.1037    -0.7015 C.ar    
  35 C35            1.8854     7.4842    -1.1223 C.ar    
  36 H36           -0.8635     1.8739     0.0163 H       
  37 H37           -2.9822    -1.2081     1.8597 H       
  38 H38           -2.4715     0.4970     1.8701 H       
  39 H39           -4.0496     0.0448     1.1821 H       
  40 H40           -0.7303    -3.9203     1.9258 H       
  41 H41           -2.0925    -5.9701     1.9226 H       
  42 H42           -3.5407    -6.4849     0.0003 H       
  43 H43           -3.6299    -4.9532    -1.9241 H       
  44 H44           -2.2763    -2.8977    -1.9275 H       
  45 H45            0.5264     3.9518     0.8528 H       
  46 H46            5.4808    -3.1171    -0.9567 H       
  47 H47            5.4979    -3.1269     0.8232 H       
  48 H48            2.4903    -5.2881     1.1995 H       
  49 H49            4.1723    -5.8703     1.1801 H       
  50 H50            3.7516    -4.3947     2.0823 H       
  51 H51            3.7105    -4.3712    -2.1959 H       
  52 H52            4.1483    -5.8565    -1.3182 H       
  53 H53            2.4664    -5.2744    -1.2989 H       
  54 H54            7.7593    -4.0081    -0.9834 H       
  55 H55            7.7764    -4.0178     0.7964 H       
  56 H56            8.0789    -5.5227    -0.1048 H       
  57 H57            1.1166     3.7637    -2.1442 H       
  58 H58           -0.5056     3.7540    -1.4046 H       
  59 H59            4.5532     5.4873     0.8043 H       
  60 H60            4.9108     7.8728     0.3188 H       
  61 H61            3.2066     9.1506    -0.9133 H       
  62 H62            1.1391     8.0473    -1.6629 H       
@<TRIPOS>BOND
   1    1    2 1
   2    1   17 am
   3    1   36 1
   4    2    3 1
   5    2    6 2
   6    3    4 2
   7    4    5 1
   8    4    9 1
   9    5    6 1
  10    5   11 1
  11    6    7 1
  12    7    8 1
  13    8   37 1
  14    8   38 1
  15    8   39 1
  16    9   10 1
  17    9   20 2
  18   10   21 1
  19   11   12 ar
  20   11   16 ar
  21   12   13 ar
  22   12   40 1
  23   13   14 ar
  24   13   41 1
  25   14   15 ar
  26   14   42 1
  27   15   16 ar
  28   15   43 1
  29   16   44 1
  30   17   18 2
  31   17   19 1
  32   19   27 1
  33   19   31 1
  34   19   45 1
  35   21   22 1
  36   21   23 1
  37   21   24 1
  38   22   25 1
  39   22   46 1
  40   22   47 1
  41   23   48 1
  42   23   49 1
  43   23   50 1
  44   24   51 1
  45   24   52 1
  46   24   53 1
  47   25   26 1
  48   26   54 1
  49   26   55 1
  50   26   56 1
  51   27   28 1
  52   28   29 ar
  53   28   32 ar
  54   29   30 1
  55   29   35 ar
  56   30   31 1
  57   31   57 1
  58   31   58 1
  59   32   33 ar
  60   32   59 1
  61   33   34 ar
  62   33   60 1
  63   34   35 ar
  64   34   61 1
  65   35   62 1

#	End of record

