#	Name: ASD04230065
#	Creating user name:	WinNT
#	Creation time:	15. 06. 2019 20:48

#	Modifying user name:	WinNT
#	Modification time:	15. 06. 2019 20:48

#	Program:	/corina/corina34_cracker 3.40 0067  02.08.2006

@<TRIPOS>MOLECULE
ASD04230065
  50   53    0    0    0
SMALL
NO_CHARGES


@<TRIPOS>ATOM
   1 C1             1.5360     4.6862     1.7201 C.ar    
   2 C2             2.5439     5.3840     2.3698 C.ar    
   3 C3             3.8005     4.8589     2.4683 C.ar    
   4 C4             4.0825     3.6081     1.9004 C.ar    
   5 C5             3.0564     2.8818     1.2693 C.ar    
   6 C6             1.7832     3.4396     1.1729 C.ar    
   7 C7             5.3934     3.0678     1.9620 C.2     
   8 C8             5.6628     1.9284     1.2155 C.2     
   9 C9             4.5671     1.3877     0.3905 C.2     
  10 O10            3.2979     1.6423     0.7794 O.3     
  11 C11            6.9879     1.2871     1.2463 C.2     
  12 N12            7.2188     0.1818     0.5105 N.am    
  13 O13            7.8740     1.7548     1.9358 O.2     
  14 C14            8.5059    -0.3623     0.4510 C.ar    
  15 C15            8.6753    -1.7390     0.3688 C.ar    
  16 C16            9.9457    -2.2804     0.3097 C.ar    
  17 C17           11.0532    -1.4568     0.3316 C.ar    
  18 C18           10.8928    -0.0742     0.4139 C.ar    
  19 C19            9.6134     0.4724     0.4682 C.ar    
  20 C20           12.0819     0.8123     0.4381 C.ar    
  21 O21            4.7981     0.7330    -0.6089 O.2     
  22 O22            0.7869     2.7609     0.5439 O.3     
  23 C23           13.1289     0.5573     1.3281 C.ar    
  24 C24           14.2373     1.3884     1.3459 C.ar    
  25 C25           14.3085     2.4677     0.4863 C.ar    
  26 C26           13.2715     2.7257    -0.3998 C.ar    
  27 C27           12.1617     1.8985    -0.4302 C.ar    
  28 O28           13.3480     3.7900    -1.2427 O.3     
  29 C29           14.5234     4.5987    -1.1615 C.3     
  30 O30           13.0596    -0.5037     2.1748 O.3     
  31 C31           14.1662    -0.7032     3.0567 C.3     
  32 H32            0.5488     5.1177     1.6448 H       
  33 H33            2.3328     6.3513     2.8012 H       
  34 H34            4.5764     5.4065     2.9826 H       
  35 H35            6.1576     3.5287     2.5702 H       
  36 H36            6.4924    -0.2364     0.0223 H       
  37 H37            7.8121    -2.3878     0.3513 H       
  38 H38           10.0722    -3.3511     0.2466 H       
  39 H39           12.0443    -1.8834     0.2853 H       
  40 H40            9.4840     1.5427     0.5320 H       
  41 H41            0.2743     2.1847     1.1273 H       
  42 H42           15.0470     1.1924     2.0332 H       
  43 H43           15.1741     3.1134     0.5040 H       
  44 H44           11.3555     2.1002    -1.1200 H       
  45 H45           14.6103     5.0135    -0.1573 H       
  46 H46           15.3999     3.9886    -1.3798 H       
  47 H47           14.4564     5.4107    -1.8856 H       
  48 H48           13.9834    -1.5811     3.6763 H       
  49 H49           15.0740    -0.8536     2.4723 H       
  50 H50           14.2854     0.1730     3.6941 H       
@<TRIPOS>BOND
   1    1    2 ar
   2    1    6 ar
   3    1   32 1
   4    2    3 ar
   5    2   33 1
   6    3    4 ar
   7    3   34 1
   8    4    5 ar
   9    4    7 1
  10    5    6 ar
  11    5   10 1
  12    6   22 1
  13    7    8 2
  14    7   35 1
  15    8    9 1
  16    8   11 1
  17    9   10 1
  18    9   21 2
  19   11   12 am
  20   11   13 2
  21   12   14 1
  22   12   36 1
  23   14   15 ar
  24   14   19 ar
  25   15   16 ar
  26   15   37 1
  27   16   17 ar
  28   16   38 1
  29   17   18 ar
  30   17   39 1
  31   18   19 ar
  32   18   20 1
  33   19   40 1
  34   20   23 ar
  35   20   27 ar
  36   22   41 1
  37   23   24 ar
  38   23   30 1
  39   24   25 ar
  40   24   42 1
  41   25   26 ar
  42   25   43 1
  43   26   27 ar
  44   26   28 1
  45   27   44 1
  46   28   29 1
  47   29   45 1
  48   29   46 1
  49   29   47 1
  50   30   31 1
  51   31   48 1
  52   31   49 1
  53   31   50 1

#	End of record

