#	Name: ASD01913737
#	Creating user name:	WinNT
#	Creation time:	15. 06. 2019 20:02

#	Modifying user name:	WinNT
#	Modification time:	15. 06. 2019 20:02

#	Program:	/corina/corina34_cracker 3.40 0067  02.08.2006

@<TRIPOS>MOLECULE
ASD01913737
  51   53    0    0    0
SMALL
NO_CHARGES


@<TRIPOS>ATOM
   1 O1            -0.0163     1.3489     0.0095 O.3     
   2 C2             0.0021    -0.0041     0.0020 C.ar    
   3 N3             1.1608    -0.6427    -0.0125 N.ar    
   4 C4             1.2321    -1.9572    -0.0202 C.ar    
   5 C5             0.0752    -2.7403    -0.0138 C.ar    
   6 C6            -1.1741    -2.1108     0.0015 C.ar    
   7 C7            -1.2099    -0.7158     0.0155 C.ar    
   8 C8             0.1698    -4.2138    -0.0236 C.2     
   9 N9             1.3778    -4.8114    -0.0388 N.am    
  10 O10           -0.8419    -4.8879    -0.0180 O.2     
  11 C11            1.2480     2.0149     0.0010 C.3     
  12 C12            1.0303     3.5061     0.0111 C.ar    
  13 C13            0.9392     4.2020     1.2068 C.ar    
  14 C14            0.7397     5.5692     1.1768 C.ar    
  15 N15            0.6360     6.2107     0.0293 N.ar    
  16 C16            0.7177     5.5816    -1.1267 C.ar    
  17 C17            0.9222     4.2156    -1.1752 C.ar    
  18 C18            1.4716    -6.2733    -0.0485 C.3     
  19 C19           -2.4617    -0.0204     0.0315 C.1     
  20 N20           -3.4546     0.5312     0.0442 N.1     
  21 C21            2.8031    -6.6947    -0.6735 C.3     
  22 C22            1.3926    -6.7990     1.3862 C.3     
  23 C23            2.9011    -8.2216    -0.6836 C.3     
  24 C24            4.2325    -8.6430    -1.3086 C.3     
  25 C25            4.3115    -8.1173    -2.7433 C.3     
  26 C26            4.2135    -6.5905    -2.7332 C.3     
  27 C27            2.8821    -6.1691    -2.1082 C.3     
  28 H28            2.1994    -2.4374    -0.0320 H       
  29 H29           -2.0863    -2.6890     0.0067 H       
  30 H30            2.1850    -4.2735    -0.0433 H       
  31 H31            1.8174     1.7249     0.8840 H       
  32 H32            1.8004     1.7345    -0.8959 H       
  33 H33            1.0226     3.6821     2.1498 H       
  34 H34            0.6676     6.1186     2.1038 H       
  35 H35            0.6277     6.1408    -2.0463 H       
  36 H36            0.9886     3.7060    -2.1252 H       
  37 H37            0.6492    -6.6863    -0.6326 H       
  38 H38            3.6255    -6.2817    -0.0894 H       
  39 H39            0.4441    -6.4988     1.8314 H       
  40 H40            1.4625    -7.8867     1.3789 H       
  41 H41            2.2151    -6.3860     1.9702 H       
  42 H42            2.8448    -8.5961     0.3385 H       
  43 H43            2.0787    -8.6346    -1.2677 H       
  44 H44            5.0549    -8.2300    -0.7245 H       
  45 H45            4.3024    -9.7307    -1.3158 H       
  46 H46            5.2601    -8.4175    -3.1886 H       
  47 H47            3.4891    -8.5303    -3.3274 H       
  48 H48            5.0359    -6.1775    -2.1491 H       
  49 H49            4.2698    -6.2160    -3.7553 H       
  50 H50            2.0596    -6.5821    -2.6923 H       
  51 H51            2.8122    -5.0813    -2.1010 H       
@<TRIPOS>BOND
   1    1    2 1
   2    1   11 1
   3    2    3 ar
   4    2    7 ar
   5    3    4 ar
   6    4    5 ar
   7    4   28 1
   8    5    6 ar
   9    5    8 1
  10    6    7 ar
  11    6   29 1
  12    7   19 1
  13    8    9 am
  14    8   10 2
  15    9   18 1
  16    9   30 1
  17   11   12 1
  18   11   31 1
  19   11   32 1
  20   12   13 ar
  21   12   17 ar
  22   13   14 ar
  23   13   33 1
  24   14   15 ar
  25   14   34 1
  26   15   16 ar
  27   16   17 ar
  28   16   35 1
  29   17   36 1
  30   18   21 1
  31   18   22 1
  32   18   37 1
  33   19   20 3
  34   21   23 1
  35   21   27 1
  36   21   38 1
  37   22   39 1
  38   22   40 1
  39   22   41 1
  40   23   24 1
  41   23   42 1
  42   23   43 1
  43   24   25 1
  44   24   44 1
  45   24   45 1
  46   25   26 1
  47   25   46 1
  48   25   47 1
  49   26   27 1
  50   26   48 1
  51   26   49 1
  52   27   50 1
  53   27   51 1

#	End of record

