#	Name: ASD03330964
#	Creating user name:	WinNT
#	Creation time:	15. 06. 2019 20:38

#	Modifying user name:	WinNT
#	Modification time:	15. 06. 2019 20:38

#	Program:	/corina/corina34_cracker 3.40 0067  02.08.2006

@<TRIPOS>MOLECULE
ASD03330964
  70   72    0    0    0
SMALL
NO_CHARGES


@<TRIPOS>ATOM
   1 N1            -0.3138     1.2733    -0.0602 N.pl3   
   2 C2            -0.1572    -0.0764    -0.1071 C.2     
   3 C3             1.1601    -0.8065    -0.1384 C.3     
   4 N4             2.0442    -0.2508     0.8980 N.3     
   5 C5             2.8238     0.8757     0.3816 C.3     
   6 C6             2.0229     1.6674    -0.6482 C.3     
   7 C7             0.7715     2.2558     0.0091 C.3     
   8 C8            -1.6539     1.5300    -0.0776 C.2     
   9 N9            -2.2987     0.3876    -0.1153 N.2     
  10 C10           -1.4036    -0.6242    -0.1316 C.2     
  11 C11           -1.7195    -2.0630    -0.1695 C.2     
  12 O12           -0.8211    -2.8828    -0.1815 O.2     
  13 N13           -3.0040    -2.4706    -0.1908 N.am    
  14 C14            2.9231    -1.2892     1.4523 C.3     
  15 C15           -4.6781    -4.1006    -0.8461 C.2     
  16 C16           -3.3180    -3.9010    -0.2285 C.3     
  17 C17           -3.3173    -4.4611     1.1953 C.3     
  18 C18           -4.2712    -3.6411     2.0663 C.3     
  19 O19           -5.5529    -3.2804    -0.6645 O.2     
  20 C20           -3.7770    -5.9202     1.1697 C.3     
  21 C21           -1.9031    -4.3819     1.7737 C.3     
  22 N22           -4.9224    -5.1906    -1.6003 N.am    
  23 C23           -3.8348    -6.1182    -1.9210 C.3     
  24 C24           -6.2755    -5.4477    -2.0995 C.3     
  25 C25           -6.4512    -4.7791    -3.4645 C.3     
  26 O26           -5.5756    -5.3935    -4.4120 O.3     
  27 C27           -5.6613    -4.8400    -5.7266 C.3     
  28 C28           -2.2758     2.8718    -0.0569 C.ar    
  29 C29           -3.3089     3.1802    -0.9461 C.ar    
  30 C30           -3.8858     4.4360    -0.9207 C.ar    
  31 C31           -3.4424     5.3854    -0.0182 C.ar    
  32 C32           -2.4189     5.0856     0.8647 C.ar    
  33 C33           -1.8377     3.8330     0.8539 C.ar    
  34 F34           -3.7424     2.2535    -1.8284 F       
  35 Cl35          -1.8694     6.2853     1.9927 Cl      
  36 H36            0.9939    -1.8664     0.0544 H       
  37 H37            1.6228    -0.6815    -1.1174 H       
  38 H38            3.0936     1.5333     1.2080 H       
  39 H39            3.7332     0.4977    -0.0856 H       
  40 H40            2.6388     2.4754    -1.0430 H       
  41 H41            1.7275     1.0068    -1.4633 H       
  42 H42            0.4758     3.1633    -0.5173 H       
  43 H43            0.9841     2.4910     1.0520 H       
  44 H44           -3.7205    -1.8168    -0.1812 H       
  45 H45            3.4876    -1.7562     0.6453 H       
  46 H46            3.6135    -0.8383     2.1651 H       
  47 H47            2.3202    -2.0436     1.9579 H       
  48 H48           -2.5685    -4.4220    -0.8242 H       
  49 H49           -5.2787    -3.6975     1.6542 H       
  50 H50           -4.2707    -4.0400     3.0807 H       
  51 H51           -3.9438    -2.6016     2.0845 H       
  52 H52           -3.0532    -6.5194     0.6173 H       
  53 H53           -3.8551    -6.2945     2.1904 H       
  54 H54           -4.7501    -5.9861     0.6830 H       
  55 H55           -1.5756    -3.3424     1.7920 H       
  56 H56           -1.9026    -4.7809     2.7881 H       
  57 H57           -1.2235    -4.9661     1.1532 H       
  58 H58           -3.7126    -6.8307    -1.1052 H       
  59 H59           -4.0736    -6.6547    -2.8393 H       
  60 H60           -2.9088    -5.5594    -2.0571 H       
  61 H61           -6.4280    -6.5224    -2.1990 H       
  62 H62           -7.0046    -5.0406    -1.3990 H       
  63 H63           -7.4833    -4.8945    -3.7954 H       
  64 H64           -6.2121    -3.7188    -3.3831 H       
  65 H65           -5.4058    -3.7809    -5.6923 H       
  66 H66           -4.9663    -5.3601    -6.3859 H       
  67 H67           -6.6770    -4.9566    -6.1045 H       
  68 H68           -4.6840     4.6764    -1.6073 H       
  69 H69           -3.8963     6.3653    -0.0023 H       
  70 H70           -1.0428     3.5993     1.5467 H       
@<TRIPOS>BOND
   1    1    2 1
   2    1    7 1
   3    1    8 1
   4    2    3 1
   5    2   10 2
   6    3    4 1
   7    3   36 1
   8    3   37 1
   9    4    5 1
  10    4   14 1
  11    5    6 1
  12    5   38 1
  13    5   39 1
  14    6    7 1
  15    6   40 1
  16    6   41 1
  17    7   42 1
  18    7   43 1
  19    8    9 2
  20    8   28 1
  21    9   10 1
  22   10   11 1
  23   11   12 2
  24   11   13 am
  25   13   16 1
  26   13   44 1
  27   14   45 1
  28   14   46 1
  29   14   47 1
  30   15   19 2
  31   15   22 am
  32   15   16 1
  33   16   17 1
  34   16   48 1
  35   17   18 1
  36   17   20 1
  37   17   21 1
  38   18   49 1
  39   18   50 1
  40   18   51 1
  41   20   52 1
  42   20   53 1
  43   20   54 1
  44   21   55 1
  45   21   56 1
  46   21   57 1
  47   22   23 1
  48   22   24 1
  49   23   58 1
  50   23   59 1
  51   23   60 1
  52   24   25 1
  53   24   61 1
  54   24   62 1
  55   25   26 1
  56   25   63 1
  57   25   64 1
  58   26   27 1
  59   27   65 1
  60   27   66 1
  61   27   67 1
  62   28   29 ar
  63   28   33 ar
  64   29   30 ar
  65   29   34 1
  66   30   31 ar
  67   30   68 1
  68   31   32 ar
  69   31   69 1
  70   32   33 ar
  71   32   35 1
  72   33   70 1

#	End of record

