#	Name: ASD03330667
#	Creating user name:	WinNT
#	Creation time:	15. 06. 2019 20:37

#	Modifying user name:	WinNT
#	Modification time:	15. 06. 2019 20:37

#	Program:	/corina/corina34_cracker 3.40 0067  02.08.2006

@<TRIPOS>MOLECULE
ASD03330667
  61   63    0    0    0
SMALL
NO_CHARGES


@<TRIPOS>ATOM
   1 C1             0.8753     1.6178     1.3413 C.2     
   2 N2             1.0853     0.3483     1.7791 N.pl3   
   3 C3             2.0413     2.0474     0.7825 C.2     
   4 N4             2.9361     1.0400     0.8684 N.2     
   5 C5             2.3700     0.0124     1.4604 C.2     
   6 C6             3.0130    -1.2840     1.7338 C.2     
   7 C7             2.2825     3.3747     0.1892 C.2     
   8 O8             1.3922     4.2030     0.1700 O.2     
   9 C9             3.7295     4.9900    -0.9217 C.3     
  10 N10            3.4897     3.6706    -0.3319 N.am    
  11 C11            3.2636     4.9896    -2.3790 C.3     
  12 C12            1.7461     4.8004    -2.4292 C.3     
  13 C13            3.6333     6.3224    -3.0330 C.3     
  14 C14            3.9454     3.8455    -3.1321 C.3     
  15 C15            5.2021     5.3054    -0.8652 C.2     
  16 N16            5.6298     6.5659    -1.0762 N.am    
  17 O17            6.0022     4.4249    -0.6298 O.2     
  18 C18            7.0647     6.8613    -1.0812 C.3     
  19 C19            0.1013    -0.4838     2.4769 C.3     
  20 C20           -1.2344    -0.4156     1.7299 C.3     
  21 C21           -2.0480     0.7713     2.2358 C.3     
  22 N22           -1.1764     1.8880     2.6063 N.3     
  23 C23           -0.4189     2.3822     1.4468 C.3     
  24 C24           -1.9460     2.9711     3.2329 C.3     
  25 C25            4.2940    -1.5477     1.5238 C.2     
  26 C26            4.6191    -2.9714     1.9120 C.3     
  27 C27            3.2483    -3.6804     2.0001 C.3     
  28 C28            2.3024    -2.4924     2.2982 C.3     
  29 H29            3.1748     5.7439    -0.3631 H       
  30 H30            4.1997     3.0099    -0.3166 H       
  31 H31            1.2604     5.6155    -1.8927 H       
  32 H32            1.4142     4.8001    -3.4675 H       
  33 H33            1.4828     3.8509    -1.9633 H       
  34 H34            4.7079     6.4834    -2.9475 H       
  35 H35            3.3518     6.3010    -4.0858 H       
  36 H36            3.1035     7.1324    -2.5317 H       
  37 H37            3.6820     2.8959    -2.6661 H       
  38 H38            3.6134     3.8452    -4.1703 H       
  39 H39            5.0264     3.9803    -3.0963 H       
  40 H40            4.9876     7.2775    -1.2248 H       
  41 H41            7.2161     7.9248    -1.2662 H       
  42 H42            7.4936     6.5960    -0.1148 H       
  43 H43            7.5521     6.2830    -1.8661 H       
  44 H44            0.4510    -1.5158     2.5044 H       
  45 H45           -0.0310    -0.1157     3.4943 H       
  46 H46           -1.0471    -0.2981     0.6625 H       
  47 H47           -1.7923    -1.3364     1.9000 H       
  48 H48           -2.7319     1.0963     1.4517 H       
  49 H49           -2.6252     0.4636     3.1077 H       
  50 H50           -0.2060     3.4434     1.5761 H       
  51 H51           -1.0044     2.2347     0.5393 H       
  52 H52           -2.4350     2.5962     4.1320 H       
  53 H53           -1.2744     3.7876     3.4981 H       
  54 H54           -2.6995     3.3331     2.5334 H       
  55 H55            5.0089    -0.8411     1.1287 H       
  56 H56            5.2404    -3.4403     1.1490 H       
  57 H57            5.1216    -2.9956     2.8790 H       
  58 H58            2.9948    -4.1588     1.0541 H       
  59 H59            3.2338    -4.4020     2.8169 H       
  60 H60            2.1547    -2.3855     3.3729 H       
  61 H61            1.3458    -2.6336     1.7951 H       
@<TRIPOS>BOND
   1    1    2 1
   2    1    3 2
   3    1   23 1
   4    2   19 1
   5    2    5 1
   6    3    4 1
   7    3    7 1
   8    4    5 2
   9    5    6 1
  10    6   25 2
  11    6   28 1
  12    7    8 2
  13    7   10 am
  14    9   10 1
  15    9   11 1
  16    9   15 1
  17    9   29 1
  18   10   30 1
  19   11   12 1
  20   11   13 1
  21   11   14 1
  22   12   31 1
  23   12   32 1
  24   12   33 1
  25   13   34 1
  26   13   35 1
  27   13   36 1
  28   14   37 1
  29   14   38 1
  30   14   39 1
  31   15   16 am
  32   15   17 2
  33   16   18 1
  34   16   40 1
  35   18   41 1
  36   18   42 1
  37   18   43 1
  38   19   20 1
  39   19   44 1
  40   19   45 1
  41   20   21 1
  42   20   46 1
  43   20   47 1
  44   21   22 1
  45   21   48 1
  46   21   49 1
  47   22   23 1
  48   22   24 1
  49   23   50 1
  50   23   51 1
  51   24   52 1
  52   24   53 1
  53   24   54 1
  54   25   26 1
  55   25   55 1
  56   26   27 1
  57   26   56 1
  58   26   57 1
  59   27   28 1
  60   27   58 1
  61   27   59 1
  62   28   60 1
  63   28   61 1

#	End of record

