#	Name: ASD01810985
#	Creating user name:	WinNT
#	Creation time:	15. 06. 2019 19:25

#	Modifying user name:	WinNT
#	Modification time:	15. 06. 2019 19:25

#	Program:	/corina/corina34_cracker 3.40 0067  02.08.2006

@<TRIPOS>MOLECULE
ASD01810985
  64   69    0    0    0
SMALL
NO_CHARGES


@<TRIPOS>ATOM
   1 C1            -0.0311     1.3936    -0.1672 C.ar    
   2 C2            -0.0039     0.0055    -0.0138 C.ar    
   3 C3            -1.2673    -0.7624     0.0096 C.2     
   4 N4            -2.3299    -0.2908     0.6915 N.am    
   5 O5            -1.3475    -1.8189    -0.5860 O.2     
   6 C6            -2.2118     0.9166     1.5202 C.3     
   7 C7             1.2164    -0.6539     0.1165 C.ar    
   8 C8             2.4021     0.0770     0.0929 C.ar    
   9 C9             2.3606     1.4641    -0.0610 C.ar    
  10 C10            1.1476     2.1118    -0.1896 C.ar    
  11 C11            3.7022    -0.6149     0.2311 C.2     
  12 C12           -2.7058     0.5945     2.9341 C.3     
  13 C13           -4.1227     0.0213     2.8568 C.3     
  14 C14           -4.1067    -1.2751     2.0437 C.3     
  15 C15           -3.6300    -0.9710     0.6153 C.3     
  16 C16           -4.6250    -0.2650     4.2485 C.ar    
  17 C17           -5.7649     0.3670     4.7128 C.ar    
  18 C18           -6.2305     0.1092     5.9854 C.ar    
  19 C19           -5.5486    -0.7920     6.8056 C.ar    
  20 C20           -4.3990    -1.4263     6.3305 C.ar    
  21 C21           -3.9474    -1.1631     5.0539 C.ar    
  22 N22            3.8556    -1.9094     0.3802 N.2     
  23 C23           -6.0259    -1.0641     8.1280 C.1     
  24 N24           -6.4046    -1.2800     9.1770 N.1     
  25 C25            5.1646    -2.2044     0.4753 C.ar    
  26 C26            5.8771    -0.9911     0.3767 C.ar    
  27 N27            4.9246    -0.0018     0.2167 N.pl3   
  28 C28            5.8936    -3.3879     0.6395 C.ar    
  29 C29            7.2742    -3.3149     0.6974 C.ar    
  30 N30            7.9049    -2.1510     0.6003 N.ar    
  31 C31            7.2589    -1.0112     0.4453 C.ar    
  32 N32            8.0154    -4.4837     0.8611 N.3     
  33 C33            9.4603    -4.1923     0.8981 C.3     
  34 C34           10.0062    -4.7552     2.2272 C.3     
  35 C35            8.9560    -5.8314     2.6086 C.3     
  36 C36            7.6426    -5.1766     2.1128 C.3     
  37 H37           -0.9761     1.9057    -0.2728 H       
  38 H38           -1.1690     1.2316     1.5604 H       
  39 H39           -2.8203     1.7138     1.0933 H       
  40 H40            1.2430    -1.7270     0.2357 H       
  41 H41            3.2792     2.0318    -0.0791 H       
  42 H42            1.1212     3.1849    -0.3084 H       
  43 H43           -2.0417    -0.1377     3.3935 H       
  44 H44           -2.7139     1.5052     3.5329 H       
  45 H45           -4.7810     0.7442     2.3749 H       
  46 H46           -3.4295    -1.9896     2.5115 H       
  47 H47           -5.1120    -1.6950     2.0088 H       
  48 H48           -4.3559    -0.3285     0.1168 H       
  49 H49           -3.5217    -1.9027     0.0601 H       
  50 H50           -6.2911     1.0641     4.0775 H       
  51 H51           -7.1201     0.6035     6.3468 H       
  52 H52           -3.8666    -2.1241     6.9598 H       
  53 H53           -3.0584    -1.6530     4.6852 H       
  54 H54            5.0916     0.9487     0.1187 H       
  55 H55            5.3886    -4.3391     0.7197 H       
  56 H56            7.8128    -0.0871     0.3704 H       
  57 H57            9.9579    -4.6768     0.0580 H       
  58 H58            9.6225    -3.1153     0.8570 H       
  59 H59           10.9865    -5.2085     2.0801 H       
  60 H60           10.0514    -3.9746     2.9867 H       
  61 H61            9.1478    -6.7675     2.0841 H       
  62 H62            8.9313    -5.9880     3.6871 H       
  63 H63            7.2745    -4.4607     2.8477 H       
  64 H64            6.8896    -5.9393     1.9145 H       
@<TRIPOS>BOND
   1    1    2 ar
   2    1   10 ar
   3    1   37 1
   4    2    3 1
   5    2    7 ar
   6    3    4 am
   7    3    5 2
   8    4    6 1
   9    4   15 1
  10    6   12 1
  11    6   38 1
  12    6   39 1
  13    7    8 ar
  14    7   40 1
  15    8    9 ar
  16    8   11 1
  17    9   10 ar
  18    9   41 1
  19   10   42 1
  20   11   22 2
  21   11   27 1
  22   12   13 1
  23   12   43 1
  24   12   44 1
  25   13   14 1
  26   13   16 1
  27   13   45 1
  28   14   15 1
  29   14   46 1
  30   14   47 1
  31   15   48 1
  32   15   49 1
  33   16   17 ar
  34   16   21 ar
  35   17   18 ar
  36   17   50 1
  37   18   19 ar
  38   18   51 1
  39   19   20 ar
  40   19   23 1
  41   20   21 ar
  42   20   52 1
  43   21   53 1
  44   22   25 1
  45   23   24 3
  46   25   26 ar
  47   25   28 ar
  48   26   27 1
  49   26   31 ar
  50   27   54 1
  51   28   29 ar
  52   28   55 1
  53   29   30 ar
  54   29   32 1
  55   30   31 ar
  56   31   56 1
  57   32   33 1
  58   32   36 1
  59   33   34 1
  60   33   57 1
  61   33   58 1
  62   34   35 1
  63   34   59 1
  64   34   60 1
  65   35   36 1
  66   35   61 1
  67   35   62 1
  68   36   63 1
  69   36   64 1

#	End of record

