#	Name: ASD02790001
#	Creating user name:	WinNT
#	Creation time:	15. 06. 2019 20:26

#	Modifying user name:	WinNT
#	Modification time:	15. 06. 2019 20:26

#	Program:	/corina/corina34_cracker 3.40 0067  02.08.2006

@<TRIPOS>MOLECULE
ASD02790001
  50   52    0    0    0
SMALL
NO_CHARGES


@<TRIPOS>ATOM
   1 C1            -0.0158     1.3162     0.0093 C.ar    
   2 N2             0.0021    -0.0041     0.0020 N.ar    
   3 C3             1.1482    -0.6769    -0.0126 C.ar    
   4 C4             2.3509     0.0496    -0.0202 C.ar    
   5 C5             2.2783     1.4530    -0.0120 C.ar    
   6 N6             1.0852     2.0379     0.0026 N.ar    
   7 N7             3.6643    -0.2821    -0.0346 N.2     
   8 C8             4.3848     0.8017    -0.0357 C.2     
   9 N9             3.5758     1.8988    -0.0220 N.pl3   
  10 N10            1.1569    -2.0607    -0.0196 N.pl3   
  11 C11            4.0119     3.2974    -0.0187 C.3     
  12 O12            5.3415     3.4108    -0.5712 O.3     
  13 C13            5.8516     4.6694    -0.0799 C.3     
  14 C14            5.3791     4.7404     1.3892 C.3     
  15 C15            4.1410     3.8170     1.4303 C.3     
  16 C16            7.3799     4.6883    -0.1494 C.3     
  17 S17            7.9067     4.6588    -1.8849 S.o     
  18 C18            9.7164     4.6854    -1.7626 C.3     
  19 C19            7.5568     2.9517    -2.3887 C.3     
  20 C20           10.3229     4.6640    -3.1671 C.3     
  21 C21           11.8492     4.6864    -3.0639 C.3     
  22 C22           12.4479     4.5416    -4.4393 C.2     
  23 O23           12.8471     5.5170    -5.0301 O.2     
  24 O24           12.5376     3.3291    -5.0079 O.3     
  25 N25           12.2814     5.9602    -2.4733 N.3     
  26 O26            2.9766     4.5570     1.8025 O.3     
  27 O27            5.0172     6.0789     1.7346 O.3     
  28 H28           -0.9695     1.8231     0.0165 H       
  29 H29            5.4644     0.8280    -0.0459 H       
  30 H30            0.3199    -2.5510    -0.0139 H       
  31 H31            1.9999    -2.5404    -0.0303 H       
  32 H32            3.3124     3.9135    -0.5836 H       
  33 H33            5.4346     5.4975    -0.6530 H       
  34 H34            6.1552     4.3687     2.0583 H       
  35 H35            4.3049     2.9888     2.1199 H       
  36 H36            7.7542     5.5935     0.3286 H       
  37 H37            7.7778     3.8141     0.3660 H       
  38 H38           10.0322     5.5908    -1.2442 H       
  39 H39           10.0559     3.8114    -1.2068 H       
  40 H40            6.4924     2.7488    -2.2705 H       
  41 H41            7.8388     2.8159    -3.4328 H       
  42 H42            8.1290     2.2644    -1.7655 H       
  43 H43           10.0070     3.7587    -3.6854 H       
  44 H44            9.9834     5.5381    -3.7228 H       
  45 H45           12.1829     3.8620    -2.4337 H       
  46 H46           12.9290     3.2863    -5.8911 H       
  47 H47           11.9839     6.7406    -3.0395 H       
  48 H48           11.9459     6.0519    -1.5262 H       
  49 H49            3.0290     4.9570     2.6814 H       
  50 H50            4.7128     6.1811     2.6468 H       
@<TRIPOS>BOND
   1    1    2 ar
   2    1    6 ar
   3    1   28 1
   4    2    3 ar
   5    3    4 ar
   6    3   10 1
   7    4    5 ar
   8    4    7 1
   9    5    6 ar
  10    5    9 1
  11    7    8 2
  12    8    9 1
  13    8   29 1
  14    9   11 1
  15   10   30 1
  16   10   31 1
  17   11   12 1
  18   11   15 1
  19   11   32 1
  20   12   13 1
  21   13   14 1
  22   13   16 1
  23   13   33 1
  24   14   15 1
  25   14   27 1
  26   14   34 1
  27   15   26 1
  28   15   35 1
  29   16   17 1
  30   16   36 1
  31   16   37 1
  32   17   18 1
  33   17   19 1
  34   18   20 1
  35   18   38 1
  36   18   39 1
  37   19   40 1
  38   19   41 1
  39   19   42 1
  40   20   21 1
  41   20   43 1
  42   20   44 1
  43   21   22 1
  44   21   25 1
  45   21   45 1
  46   22   23 2
  47   22   24 1
  48   24   46 1
  49   25   47 1
  50   25   48 1
  51   26   49 1
  52   27   50 1

#	End of record

