#	Name: ASD01916283
#	Creating user name:	WinNT
#	Creation time:	15. 06. 2019 20:07

#	Modifying user name:	WinNT
#	Modification time:	15. 06. 2019 20:07

#	Program:	/corina/corina34_cracker 3.40 0067  02.08.2006

@<TRIPOS>MOLECULE
ASD01916283
  39   41    0    0    0
SMALL
NO_CHARGES


@<TRIPOS>ATOM
   1 C1            -0.3078     1.4514    -0.4726 C.ar    
   2 C2            -0.3731     0.0716    -0.5503 C.ar    
   3 C3             0.7471    -0.6926    -0.2875 C.ar    
   4 C4             1.9489    -0.0721     0.0570 C.ar    
   5 C5             2.0129     1.3196     0.1344 C.ar    
   6 C6             0.8839     2.0766    -0.1305 C.ar    
   7 O7             0.9425     3.4322    -0.0561 O.3     
   8 C8             0.4359     4.0329     1.0528 C.ar    
   9 C9             0.4722     5.4148     1.1820 C.ar    
  10 N10           -0.0160     6.0102     2.2529 N.ar    
  11 C11           -0.5567     5.3306     3.2423 C.ar    
  12 C12           -0.1295     3.2721     2.0680 C.ar    
  13 Cl13          -1.8673    -0.7014    -0.9788 Cl      
  14 C14            3.1497    -0.8866     0.3394 C.2     
  15 N15            3.0852    -2.2307     0.2644 N.am    
  16 O16            4.1953    -0.3441     0.6393 O.2     
  17 C17            4.2397    -2.9936     0.4264 C.ar    
  18 C18            4.1889    -4.3694     0.2330 C.ar    
  19 C19            6.5128    -4.4564     0.7495 C.ar    
  20 C20            6.4918    -3.0860     0.9204 C.ar    
  21 N21            5.3763    -2.4011     0.7576 N.ar    
  22 C22            5.3431    -5.1152     0.3967 C.ar    
  23 C23           -0.6328     3.9372     3.1918 C.ar    
  24 C24           -1.2213     3.2011     4.2700 C.1     
  25 N25           -1.6881     2.6171     5.1253 N.1     
  26 C26            7.7583    -2.3647     1.3034 C.3     
  27 F27            8.4429    -1.9780     0.1462 F       
  28 F28            7.4392    -1.2304     2.0574 F       
  29 F29            8.5687    -3.2162     2.0620 F       
  30 H30           -1.1855     2.0444    -0.6831 H       
  31 H31            0.6930    -1.7696    -0.3483 H       
  32 H32            2.9401     1.8051     0.4008 H       
  33 H33            0.9070     6.0113     0.3936 H       
  34 H34           -0.9452     5.8562     4.1021 H       
  35 H35           -0.1757     2.1956     1.9940 H       
  36 H36            2.2351    -2.6669     0.0977 H       
  37 H37            3.2611    -4.8496    -0.0408 H       
  38 H38            7.4307    -5.0091     0.8848 H       
  39 H39            5.3338    -6.1856     0.2536 H       
@<TRIPOS>BOND
   1    1    2 ar
   2    1    6 ar
   3    1   30 1
   4    2    3 ar
   5    2   13 1
   6    3    4 ar
   7    3   31 1
   8    4    5 ar
   9    4   14 1
  10    5    6 ar
  11    5   32 1
  12    6    7 1
  13    7    8 1
  14    8    9 ar
  15    8   12 ar
  16    9   10 ar
  17    9   33 1
  18   10   11 ar
  19   11   23 ar
  20   11   34 1
  21   12   23 ar
  22   12   35 1
  23   14   15 am
  24   14   16 2
  25   15   17 1
  26   15   36 1
  27   17   18 ar
  28   17   21 ar
  29   18   22 ar
  30   18   37 1
  31   19   20 ar
  32   19   22 ar
  33   19   38 1
  34   20   21 ar
  35   20   26 1
  36   22   39 1
  37   23   24 1
  38   24   25 3
  39   26   27 1
  40   26   28 1
  41   26   29 1

#	End of record

