#	Name: ASD05430300
#	Creating user name:	WinNT
#	Creation time:	15. 06. 2019 21:00

#	Modifying user name:	WinNT
#	Modification time:	15. 06. 2019 21:00

#	Program:	/corina/corina34_cracker 3.40 0067  02.08.2006

@<TRIPOS>MOLECULE
ASD05430300
  69   75    0    0    0
SMALL
NO_CHARGES


@<TRIPOS>ATOM
   1 C1            -0.0320     1.9683    -0.1011 C.ar    
   2 C2            -0.1345     0.7470    -0.7693 C.ar    
   3 C3             1.0005     0.1295    -1.2785 C.ar    
   4 C4             2.2349     0.7199    -1.1261 C.ar    
   5 C5             2.3438     1.9424    -0.4581 C.ar    
   6 C6             1.1945     2.5641     0.0550 C.ar    
   7 C7             4.6812     0.3092     0.0707 C.3     
   8 C8             4.7583     1.8161    -0.1212 C.2     
   9 C9             3.6616     2.5772    -0.2923 C.2     
  10 C10            5.6732    -0.0871     1.1649 C.3     
  11 C11            7.1245     0.2671     0.8383 C.3     
  12 N12            7.1946     1.6684     0.4311 N.pl3   
  13 C13            6.1237     2.3870    -0.1060 C.2     
  14 C14            8.3209     2.6011     0.5016 C.3     
  15 O15            7.9312     3.6571    -0.4012 O.3     
  16 N16            6.5252     3.5261    -0.5619 N.2     
  17 C17            8.4849     3.1322     1.9024 C.ar    
  18 C18            9.6094     1.9292     0.0229 C.3     
  19 N19           -1.3872     0.1416    -0.9264 N.pl3   
  20 C20           -1.9187    -0.3409    -2.0948 C.2     
  21 C21           -3.1345    -0.8359    -1.7950 C.2     
  22 N22           -3.3450    -0.6632    -0.4815 N.2     
  23 C23           -2.3036    -0.0842     0.0510 C.2     
  24 C24           -4.0933    -1.4733    -2.7673 C.3     
  25 C25            8.1336     2.3473     2.9847 C.ar    
  26 C26            8.2840     2.8345     4.2696 C.ar    
  27 C27            8.7860     4.1065     4.4721 C.ar    
  28 C28            9.1381     4.8910     3.3898 C.ar    
  29 C29            8.9918     4.4022     2.1051 C.ar    
  30 O30           10.7100     2.8210     0.2112 O.3     
  31 C31            5.2393     0.3518     2.5704 C.3     
  32 N32            5.6933    -0.9845     3.0171 N.3     
  33 C33            5.4940    -1.5308     1.6557 C.3     
  34 C34            0.6139     3.7391     0.7957 C.3     
  35 C35           -0.7474     3.0810     0.6184 C.3     
  36 S36            8.9818     4.7448     6.1545 Du      
  37 F37           10.4444     5.2997     5.7737 F       
  38 F38            7.5192     4.1900     6.5352 F       
  39 F39            8.3317     6.1455     5.6986 F       
  40 F40            9.1559     5.3127     7.6509 F       
  41 F41            9.6318     3.3442     6.6103 F       
  42 H42            0.9147    -0.8154    -1.7946 H       
  43 H43            3.1173     0.2390    -1.5217 H       
  44 H44            3.6717     0.0282     0.3707 H       
  45 H45            4.9415    -0.1935    -0.8608 H       
  46 H46            3.7484     3.6536    -0.3080 H       
  47 H47            7.7448     0.1126     1.7212 H       
  48 H48            7.4803    -0.3667     0.0261 H       
  49 H49            9.7784     1.0175     0.5959 H       
  50 H50            9.5189     1.6820    -1.0349 H       
  51 H51           -1.4518    -0.3264    -3.0686 H       
  52 H52           -2.1922     0.1786     1.0926 H       
  53 H53           -3.9042    -2.5458    -2.8139 H       
  54 H54           -5.1168    -1.2990    -2.4354 H       
  55 H55           -3.9525    -1.0362    -3.7558 H       
  56 H56            7.7414     1.3535     2.8265 H       
  57 H57            8.0089     2.2215     5.1152 H       
  58 H58            9.5300     5.8849     3.5481 H       
  59 H59            9.2669     5.0151     1.2595 H       
  60 H60           11.5615     2.4601    -0.0714 H       
  61 H61            5.8287     1.1744     2.9755 H       
  62 H62            4.1650     0.5070     2.6702 H       
  63 H63            6.6722    -0.9708     3.2614 H       
  64 H64            4.4951    -1.9322     1.4851 H       
  65 H65            6.2862    -2.2063     1.3329 H       
  66 H66            0.9384     3.8040     1.8343 H       
  67 H67            0.7118     4.6839     0.2610 H       
  68 H68           -1.4273     3.6489    -0.0167 H       
  69 H69           -1.2057     2.7669     1.5561 H       
@<TRIPOS>BOND
   1    1    2 ar
   2    1    6 ar
   3    1   35 1
   4    2    3 ar
   5    2   19 1
   6    3    4 ar
   7    3   42 1
   8    4    5 ar
   9    4   43 1
  10    5    6 ar
  11    5    9 1
  12    6   34 1
  13    7    8 1
  14    7   10 1
  15    7   44 1
  16    7   45 1
  17    8    9 2
  18    8   13 1
  19    9   46 1
  20   10   11 1
  21   10   31 1
  22   10   33 1
  23   11   12 1
  24   11   47 1
  25   11   48 1
  26   12   13 1
  27   12   14 1
  28   13   16 2
  29   14   15 1
  30   14   17 1
  31   14   18 1
  32   15   16 1
  33   17   25 ar
  34   17   29 ar
  35   18   30 1
  36   18   49 1
  37   18   50 1
  38   19   20 1
  39   19   23 1
  40   20   21 2
  41   20   51 1
  42   21   22 1
  43   21   24 1
  44   22   23 2
  45   23   52 1
  46   24   53 1
  47   24   54 1
  48   24   55 1
  49   25   26 ar
  50   25   56 1
  51   26   27 ar
  52   26   57 1
  53   27   28 ar
  54   27   36 1
  55   28   29 ar
  56   28   58 1
  57   29   59 1
  58   30   60 1
  59   31   32 1
  60   31   61 1
  61   31   62 1
  62   32   33 1
  63   32   63 1
  64   33   64 1
  65   33   65 1
  66   34   35 1
  67   34   66 1
  68   34   67 1
  69   35   68 1
  70   35   69 1
  71   36   37 1
  72   36   38 1
  73   36   39 1
  74   36   40 1
  75   36   41 1

#	End of record

