#	Name: ASD01915792
#	Creating user name:	WinNT
#	Creation time:	15. 06. 2019 20:06

#	Modifying user name:	WinNT
#	Modification time:	15. 06. 2019 20:06

#	Program:	/corina/corina34_cracker 3.40 0067  02.08.2006

@<TRIPOS>MOLECULE
ASD01915792
  47   50    0    0    0
SMALL
NO_CHARGES


@<TRIPOS>ATOM
   1 C1            -0.0043     1.4624     0.2160 C.2     
   2 N2             0.0610     0.1089    -0.0286 N.pl3   
   3 C3            -1.1519    -0.6753    -0.2903 C.3     
   4 C4            -2.3301    -0.0460     0.4513 C.3     
   5 N5            -2.4044     1.3988     0.2637 N.am    
   6 C6            -1.2915     2.1718     0.2660 C.2     
   7 C7             1.2786     1.8995     0.3907 C.2     
   8 C8             2.0744     0.7546     0.2502 C.2     
   9 N9             1.2807    -0.2628     0.0090 N.2     
  10 C10            3.5766     0.7009     0.3565 C.3     
  11 O11            4.0821     2.0100     0.6262 O.3     
  12 C12            5.4293     2.1373     0.7525 C.ar    
  13 O13           -1.3538     3.3859     0.3072 O.2     
  14 C14            5.9883     3.3797     1.0145 C.ar    
  15 C15            6.2473     1.0241     0.6251 C.ar    
  16 C16            7.6164     1.1562     0.7538 C.ar    
  17 C17            8.1715     2.3965     1.0093 C.ar    
  18 C18            7.3579     3.5065     1.1423 C.ar    
  19 C19           -3.6506     1.9987     0.0775 C.ar    
  20 N20           -3.7257     3.2622    -0.3202 N.ar    
  21 C21           -4.8130     1.2706     0.3032 C.ar    
  22 N22           -5.9928     1.8379     0.1261 N.ar    
  23 C23           -6.0682     3.1032    -0.2668 C.ar    
  24 C24           -4.9048     3.8301    -0.4970 C.ar    
  25 N25           -7.3117     3.7016    -0.4536 N.pl3   
  26 C26           -7.3968     5.0616    -0.9916 C.3     
  27 C27           -8.5348     2.9712    -0.1120 C.3     
  28 H28           -1.3572    -0.6815    -1.3608 H       
  29 H29           -1.0065    -1.6977     0.0587 H       
  30 H30           -3.2547    -0.4961     0.0899 H       
  31 H31           -2.2301    -0.2583     1.5157 H       
  32 H32            1.6077     2.9082     0.5926 H       
  33 H33            3.8598     0.0282     1.1661 H       
  34 H34            3.9945     0.3363    -0.5819 H       
  35 H35            5.3532     4.2471     1.1181 H       
  36 H36            5.8142     0.0551     0.4259 H       
  37 H37            8.2537     0.2898     0.6551 H       
  38 H38            9.2421     2.4976     1.1096 H       
  39 H39            7.7939     4.4743     1.3416 H       
  40 H40           -4.7516     0.2408     0.6229 H       
  41 H41           -4.9658     4.8599    -0.8167 H       
  42 H42           -7.4574     5.0189    -2.0791 H       
  43 H43           -8.2860     5.5534    -0.5972 H       
  44 H44           -6.5103     5.6242    -0.6990 H       
  45 H45           -8.2739     1.9843     0.2702 H       
  46 H46           -9.0861     3.5219     0.6502 H       
  47 H47           -9.1545     2.8638    -1.0022 H       
@<TRIPOS>BOND
   1    1    2 1
   2    1    7 2
   3    1    6 1
   4    2    3 1
   5    2    9 1
   6    3    4 1
   7    3   28 1
   8    3   29 1
   9    4    5 1
  10    4   30 1
  11    4   31 1
  12    5    6 am
  13    5   19 1
  14    6   13 2
  15    7    8 1
  16    7   32 1
  17    8    9 2
  18    8   10 1
  19   10   11 1
  20   10   33 1
  21   10   34 1
  22   11   12 1
  23   12   14 ar
  24   12   15 ar
  25   14   18 ar
  26   14   35 1
  27   15   16 ar
  28   15   36 1
  29   16   17 ar
  30   16   37 1
  31   17   18 ar
  32   17   38 1
  33   18   39 1
  34   19   21 ar
  35   19   20 ar
  36   20   24 ar
  37   21   22 ar
  38   21   40 1
  39   22   23 ar
  40   23   24 ar
  41   23   25 1
  42   24   41 1
  43   25   26 1
  44   25   27 1
  45   26   42 1
  46   26   43 1
  47   26   44 1
  48   27   45 1
  49   27   46 1
  50   27   47 1

#	End of record

