#	Name: ASD01890008
#	Creating user name:	WinNT
#	Creation time:	15. 06. 2019 19:50

#	Modifying user name:	WinNT
#	Modification time:	15. 06. 2019 19:50

#	Program:	/corina/corina34_cracker 3.40 0067  02.08.2006

@<TRIPOS>MOLECULE
ASD01890008
  44   48    0    0    0
SMALL
NO_CHARGES


@<TRIPOS>ATOM
   1 C1            -0.0155     1.2927     0.0091 C.2     
   2 N2             0.0021    -0.0041     0.0020 N.2     
   3 C3             1.2787    -0.4401    -0.0051 C.ar    
   4 C4             2.1153     0.7039    -0.0061 C.ar    
   5 N5             1.2753     1.7825    -0.0005 N.am    
   6 C6             1.8251    -1.7276    -0.0103 C.ar    
   7 C7             3.2051    -1.8243    -0.0162 C.ar    
   8 C8             4.0190    -0.7040    -0.0171 C.ar    
   9 C9             3.4987     0.5817    -0.0115 C.ar    
  10 C10           -1.2245     2.2000     0.0325 C.3     
  11 C11           -0.8006     3.5290     0.6723 C.3     
  12 C12            0.4189     4.0902    -0.0606 C.3     
  13 C13            1.5581     3.1007    -0.0088 C.2     
  14 O14            2.7036     3.4837     0.0244 O.2     
  15 Cl15           5.7422    -0.9150    -0.0240 Cl      
  16 C16           -4.0259     6.3236     0.4132 C.ar    
  17 C17           -3.5214     5.9514     1.6576 C.ar    
  18 C18           -2.4799     5.0491     1.7354 C.ar    
  19 C19           -1.9373     4.5141     0.5810 C.ar    
  20 C20           -2.4339     4.8804    -0.6570 C.ar    
  21 C21           -3.4752     5.7819    -0.7464 C.ar    
  22 C22           -5.1496     7.2886     0.3236 C.ar    
  23 C23           -5.6540     7.6608    -0.9208 C.ar    
  24 C24           -6.6993     8.5588    -0.9983 C.ar    
  25 C25           -7.2456     9.0895     0.1563 C.ar    
  26 C26           -6.7484     8.7239     1.3942 C.ar    
  27 C27           -5.7078     7.8216     1.4837 C.ar    
  28 H28            1.1979    -2.6068    -0.0094 H       
  29 H29            3.6614    -2.8032    -0.0199 H       
  30 H30            4.1413     1.4498    -0.0123 H       
  31 H31           -1.5744     2.3750    -0.9849 H       
  32 H32           -2.0181     1.7424     0.6231 H       
  33 H33           -0.5492     3.3630     1.7198 H       
  34 H34            0.1571     4.2856    -1.1005 H       
  35 H35            0.7279     5.0220     0.4132 H       
  36 H36           -3.9443     6.3685     2.5596 H       
  37 H37           -2.0881     4.7599     2.6994 H       
  38 H38           -2.0064     4.4599    -1.5552 H       
  39 H39           -3.8627     6.0667    -1.7135 H       
  40 H40           -5.2277     7.2476    -1.8230 H       
  41 H41           -7.0911     8.8480    -1.9623 H       
  42 H42           -8.0632     9.7921     0.0911 H       
  43 H43           -7.1784     9.1415     2.2926 H       
  44 H44           -5.3237     7.5328     2.4509 H       
@<TRIPOS>BOND
   1    1    2 2
   2    1    5 1
   3    1   10 1
   4    2    3 1
   5    3    4 ar
   6    3    6 ar
   7    4    5 1
   8    4    9 ar
   9    5   13 am
  10    6    7 ar
  11    6   28 1
  12    7    8 ar
  13    7   29 1
  14    8    9 ar
  15    8   15 1
  16    9   30 1
  17   10   11 1
  18   10   31 1
  19   10   32 1
  20   11   12 1
  21   11   19 1
  22   11   33 1
  23   12   13 1
  24   12   34 1
  25   12   35 1
  26   13   14 2
  27   16   17 ar
  28   16   21 ar
  29   16   22 1
  30   17   18 ar
  31   17   36 1
  32   18   19 ar
  33   18   37 1
  34   19   20 ar
  35   20   21 ar
  36   20   38 1
  37   21   39 1
  38   22   23 ar
  39   22   27 ar
  40   23   24 ar
  41   23   40 1
  42   24   25 ar
  43   24   41 1
  44   25   26 ar
  45   25   42 1
  46   26   27 ar
  47   26   43 1
  48   27   44 1

#	End of record

