#	Name: ASD01883437
#	Creating user name:	WinNT
#	Creation time:	15. 06. 2019 19:46

#	Modifying user name:	WinNT
#	Modification time:	15. 06. 2019 19:46

#	Program:	/corina/corina34_cracker 3.40 0067  02.08.2006

@<TRIPOS>MOLECULE
ASD01883437
  44   47    0    0    0
SMALL
NO_CHARGES


@<TRIPOS>ATOM
   1 C1            -0.0109     1.3359     0.1002 C.ar    
   2 C2            -0.0569    -0.0580     0.0814 C.ar    
   3 C3             1.1147    -0.7851     0.1240 C.ar    
   4 C4             2.3357    -0.1329     0.1854 C.ar    
   5 C5             2.3866     1.2516     0.2048 C.ar    
   6 C6             1.2207     1.9877     0.1620 C.ar    
   7 C7            -1.2657     2.1216     0.0484 C.2     
   8 C8            -2.0721     2.0750    -1.0795 C.2     
   9 C9            -3.2556     2.8295    -1.1003 C.2     
  10 C10           -3.5996     3.6149     0.0180 C.2     
  11 N11           -2.8053     3.6493     1.1063 N.am    
  12 C12           -1.6511     2.9182     1.1498 C.2     
  13 C13           -3.1692     4.4207     2.1714 C.2     
  14 C14           -2.3930     4.4789     3.2836 C.2     
  15 C15           -1.1995     3.7408     3.3484 C.2     
  16 C16           -0.8370     2.9592     2.2902 C.2     
  17 O17           -2.7708     5.2527     4.3357 O.3     
  18 C18           -3.1055     4.6313     5.4970 C.ar    
  19 O19           -4.6274     4.2711     0.0007 O.2     
  20 C20           -4.1286     2.8010    -2.2790 C.2     
  21 O21           -5.2010     3.3761    -2.2561 O.2     
  22 N22           -3.7431     2.1380    -3.3873 N.am    
  23 C23           -3.3920     5.3665     6.6429 C.ar    
  24 N24           -3.7136     4.7245     7.7538 N.ar    
  25 C25           -3.7644     3.4079     7.7836 C.ar    
  26 N26           -3.4996     2.6765     6.7197 N.ar    
  27 C27           -3.1762     3.2438     5.5693 C.ar    
  28 C28           -4.1355     2.7188     9.0714 C.3     
  29 F29            3.4803    -0.8494     0.2270 F       
  30 H30           -1.0081    -0.5672     0.0339 H       
  31 H31            1.0801    -1.8644     0.1098 H       
  32 H32            3.3407     1.7553     0.2530 H       
  33 H33            1.2614     3.0668     0.1765 H       
  34 H34           -1.7935     1.4680    -1.9283 H       
  35 H35           -4.0849     4.9916     2.1289 H       
  36 H36           -0.5790     3.7847     4.2313 H       
  37 H37            0.0776     2.3859     2.3260 H       
  38 H38           -2.9229     1.6201    -3.3820 H       
  39 H39           -4.2858     2.1787    -4.1902 H       
  40 H40           -3.3519     6.4456     6.6257 H       
  41 H41           -2.9604     2.6383     4.7014 H       
  42 H42           -5.2164     2.5849     9.1135 H       
  43 H43           -3.6468     1.7456     9.1167 H       
  44 H44           -3.8118     3.3276     9.9156 H       
@<TRIPOS>BOND
   1    1    2 ar
   2    1    6 ar
   3    1    7 1
   4    2    3 ar
   5    2   30 1
   6    3    4 ar
   7    3   31 1
   8    4    5 ar
   9    4   29 1
  10    5    6 ar
  11    5   32 1
  12    6   33 1
  13    7    8 1
  14    7   12 2
  15    8    9 2
  16    8   34 1
  17    9   10 1
  18    9   20 1
  19   10   11 am
  20   10   19 2
  21   11   12 1
  22   11   13 1
  23   12   16 1
  24   13   14 2
  25   13   35 1
  26   14   15 1
  27   14   17 1
  28   15   16 2
  29   15   36 1
  30   16   37 1
  31   17   18 1
  32   18   23 ar
  33   18   27 ar
  34   20   21 2
  35   20   22 am
  36   22   38 1
  37   22   39 1
  38   23   24 ar
  39   23   40 1
  40   24   25 ar
  41   25   26 ar
  42   25   28 1
  43   26   27 ar
  44   27   41 1
  45   28   42 1
  46   28   43 1
  47   28   44 1

#	End of record

