#	Name: ASD02030117
#	Creating user name:	WinNT
#	Creation time:	15. 06. 2019 20:14

#	Modifying user name:	WinNT
#	Modification time:	15. 06. 2019 20:14

#	Program:	/corina/corina34_cracker 3.40 0067  02.08.2006

@<TRIPOS>MOLECULE
ASD02030117
  36   39    0    0    0
SMALL
NO_CHARGES


@<TRIPOS>ATOM
   1 C1            -0.0179     1.4689     0.0101 C.3     
   2 N2             0.0021    -0.0041     0.0020 N.am    
   3 C3             1.2962    -0.3712    -0.0123 C.2     
   4 O4             1.6703    -1.5276    -0.0221 O.2     
   5 N5             2.1254     0.6787    -0.0146 N.am    
   6 C6             1.4504     1.8452    -0.0019 C.2     
   7 O7             1.9200     2.9629    -0.0011 O.2     
   8 C8            -1.8494     1.5550    -3.2807 C.ar    
   9 C9            -1.2173     1.1057    -2.1582 C.ar    
  10 C10           -0.7105     1.9965    -1.2199 C.ar    
  11 C11           -0.8334     3.3453    -1.3996 C.ar    
  12 C12           -1.4749     3.8357    -2.5380 C.ar    
  13 C13           -1.6292     5.2745    -2.7724 C.ar    
  14 C14           -1.1415     6.2190    -1.8678 C.ar    
  15 C15           -1.3060     7.5506    -2.1249 C.ar    
  16 C16           -1.9540     7.9769    -3.2777 C.ar    
  17 C17           -2.4419     7.0776    -4.1804 C.ar    
  18 C18           -2.2890     5.7040    -3.9462 C.ar    
  19 C19           -2.7841     4.7497    -4.8654 C.ar    
  20 C20           -2.6426     3.4265    -4.6495 C.ar    
  21 C21           -1.9918     2.9329    -3.4947 C.ar    
  22 C22           -0.6971     1.9911     1.2778 C.3     
  23 H23           -0.7678    -0.5942     0.0067 H       
  24 H24            3.0928     0.6091    -0.0237 H       
  25 H25           -2.2347     0.8516    -4.0040 H       
  26 H26           -1.1098     0.0433    -1.9965 H       
  27 H27           -0.4361     4.0289    -0.6639 H       
  28 H28           -0.6366     5.8985    -0.9685 H       
  29 H29           -0.9284     8.2803    -1.4239 H       
  30 H30           -2.0734     9.0344    -3.4616 H       
  31 H31           -2.9438     7.4227    -5.0722 H       
  32 H32           -3.2867     5.0884    -5.7593 H       
  33 H33           -3.0344     2.7281    -5.3743 H       
  34 H34           -0.1580     1.6302     2.1537 H       
  35 H35           -0.6907     3.0810     1.2708 H       
  36 H36           -1.7263     1.6340     1.3120 H       
@<TRIPOS>BOND
   1    1    2 1
   2    1    6 1
   3    1   10 1
   4    1   22 1
   5    2    3 am
   6    2   23 1
   7    3    4 2
   8    3    5 am
   9    5    6 am
  10    5   24 1
  11    6    7 2
  12    8    9 ar
  13    8   21 ar
  14    8   25 1
  15    9   10 ar
  16    9   26 1
  17   10   11 ar
  18   11   12 ar
  19   11   27 1
  20   12   13 ar
  21   12   21 ar
  22   13   14 ar
  23   13   18 ar
  24   14   15 ar
  25   14   28 1
  26   15   16 ar
  27   15   29 1
  28   16   17 ar
  29   16   30 1
  30   17   18 ar
  31   17   31 1
  32   18   19 ar
  33   19   20 ar
  34   19   32 1
  35   20   21 ar
  36   20   33 1
  37   22   34 1
  38   22   35 1
  39   22   36 1

#	End of record

