#	Name: ASD03570049
#	Creating user name:	WinNT
#	Creation time:	15. 06. 2019 20:43

#	Modifying user name:	WinNT
#	Modification time:	15. 06. 2019 20:43

#	Program:	/corina/corina34_cracker 3.40 0067  02.08.2006

@<TRIPOS>MOLECULE
ASD03570049
  59   62    0    0    0
SMALL
NO_CHARGES


@<TRIPOS>ATOM
   1 C1            -1.0941     0.9000     2.4459 C.ar    
   2 C2            -0.5789    -0.0384     1.5614 C.ar    
   3 C3             0.7652    -0.3803     1.6218 C.ar    
   4 C4             1.5860     0.2134     2.5610 C.ar    
   5 C5             1.0700     1.1470     3.4406 C.ar    
   6 C6            -0.2685     1.4901     3.3826 C.ar    
   7 N7            -1.4143    -0.6394     0.6099 N.pl3   
   8 C8            -2.4497    -0.0420    -0.0390 C.2     
   9 C9            -2.9974    -0.9666    -0.8723 C.2     
  10 C10           -2.2771    -2.1561    -0.7267 C.2     
  11 N11           -1.3282    -1.9608     0.1530 N.2     
  12 C12            1.3282    -1.3986     0.6641 C.3     
  13 C13            1.6251    -0.7268    -0.6781 C.3     
  14 C14           -2.5443    -3.4435    -1.4632 C.3     
  15 O15           -2.8610     1.2420     0.1168 O.3     
  16 C16           -1.9263     2.2258     0.0361 C.ar    
  17 C17            0.3328     2.9164    -0.3734 C.ar    
  18 C18           -0.6167     1.9144    -0.2918 C.ar    
  19 C19           -2.2842     3.5510     0.2773 C.ar    
  20 C20           -1.3263     4.5501     0.1936 C.ar    
  21 C21           -0.0205     4.2303    -0.1286 C.ar    
  22 N22           -3.6085     3.8728     0.6033 N.am    
  23 C23           -3.8799     5.0088     1.2758 C.2     
  24 N24           -5.1588     5.3836     1.4770 N.am    
  25 O25           -2.9710     5.6955     1.7012 O.2     
  26 C26           -5.4408     6.6113     2.0912 C.ar    
  27 C27           -6.5763     7.3239     1.7300 C.ar    
  28 C28           -4.5878     7.1128     3.0651 C.ar    
  29 C29           -4.8663     8.3226     3.6699 C.ar    
  30 C30           -5.9979     9.0368     3.3046 C.ar    
  31 C31           -6.8535     8.5336     2.3356 C.ar    
  32 O32           -6.2715    10.2281     3.9005 O.3     
  33 C33           -7.4534    10.9097     3.4756 C.3     
  34 F34           -8.5700    10.1026     3.7185 F       
  35 F35           -7.5811    12.1084     4.1855 F       
  36 F36           -7.3662    11.1854     2.1068 F       
  37 H37           -2.1384     1.1713     2.3984 H       
  38 H38            2.6317    -0.0522     2.6084 H       
  39 H39            1.7136     1.6096     4.1742 H       
  40 H40           -0.6686     2.2202     4.0705 H       
  41 H41           -3.8395    -0.8098    -1.5301 H       
  42 H42            2.2490    -1.8132     1.0744 H       
  43 H43            0.6031    -2.1991     0.5172 H       
  44 H44            0.7043    -0.3123    -1.0885 H       
  45 H45            2.3502     0.0737    -0.5313 H       
  46 H46            2.0323    -1.4633    -1.3708 H       
  47 H47           -1.9695    -3.4584    -2.3891 H       
  48 H48           -2.2496    -4.2870    -0.8389 H       
  49 H49           -3.6071    -3.5161    -1.6941 H       
  50 H50            1.3532     2.6718    -0.6292 H       
  51 H51           -0.3373     0.8889    -0.4833 H       
  52 H52           -1.6004     5.5781     0.3796 H       
  53 H53            0.7247     5.0093    -0.1932 H       
  54 H54           -4.3298     3.2780     0.3449 H       
  55 H55           -5.8840     4.8037     1.1967 H       
  56 H56           -7.2423     6.9324     0.9754 H       
  57 H57           -3.7069     6.5566     3.3500 H       
  58 H58           -4.2030     8.7126     4.4278 H       
  59 H59           -7.7368     9.0881     2.0547 H       
@<TRIPOS>BOND
   1    1    2 ar
   2    1    6 ar
   3    1   37 1
   4    2    3 ar
   5    2    7 1
   6    3    4 ar
   7    3   12 1
   8    4    5 ar
   9    4   38 1
  10    5    6 ar
  11    5   39 1
  12    6   40 1
  13    7    8 1
  14    7   11 1
  15    8    9 2
  16    8   15 1
  17    9   10 1
  18    9   41 1
  19   10   11 2
  20   10   14 1
  21   12   13 1
  22   12   42 1
  23   12   43 1
  24   13   44 1
  25   13   45 1
  26   13   46 1
  27   14   47 1
  28   14   48 1
  29   14   49 1
  30   15   16 1
  31   16   19 ar
  32   16   18 ar
  33   17   18 ar
  34   17   21 ar
  35   17   50 1
  36   18   51 1
  37   19   20 ar
  38   19   22 1
  39   20   21 ar
  40   20   52 1
  41   21   53 1
  42   22   23 am
  43   22   54 1
  44   23   24 am
  45   23   25 2
  46   24   26 1
  47   24   55 1
  48   26   28 ar
  49   26   27 ar
  50   27   31 ar
  51   27   56 1
  52   28   29 ar
  53   28   57 1
  54   29   30 ar
  55   29   58 1
  56   30   31 ar
  57   30   32 1
  58   31   59 1
  59   32   33 1
  60   33   34 1
  61   33   35 1
  62   33   36 1

#	End of record

