#	Name: ASD01882652
#	Creating user name:	WinNT
#	Creation time:	15. 06. 2019 19:45

#	Modifying user name:	WinNT
#	Modification time:	15. 06. 2019 19:45

#	Program:	/corina/corina34_cracker 3.40 0067  02.08.2006

@<TRIPOS>MOLECULE
ASD01882652
  51   54    0    0    0
SMALL
NO_CHARGES


@<TRIPOS>ATOM
   1 N1            -0.0159     1.3196     0.0093 N.ar    
   2 C2             0.0021    -0.0041     0.0020 C.ar    
   3 C3             1.2037    -0.7040    -0.0128 C.ar    
   4 C4             2.3966    -0.0010    -0.0204 C.ar    
   5 C5             1.1035     2.0275     0.0024 C.ar    
   6 N6             1.3603     3.3925     0.0065 N.am    
   7 C7             2.3439     1.3865    -0.0129 C.ar    
   8 N8             3.3170     2.3850    -0.0170 N.am    
   9 C9             2.6931     3.5785    -0.0056 C.2     
  10 C10            0.3492     4.4526     0.0216 C.3     
  11 C11            4.7664     2.1727    -0.0307 C.3     
  12 C12            5.2583     2.1053    -1.4779 C.3     
  13 C13            4.9285     3.4185    -2.1903 C.3     
  14 C14            6.7721     1.8835    -1.4922 C.3     
  15 C15            4.5663     0.9464    -2.1983 C.3     
  16 N16           -1.2000    -0.7059     0.0097 N.3     
  17 O17            3.2500     4.6605    -0.0064 O.2     
  18 C18           -3.6436    -0.5997    -0.0096 C.3     
  19 N19           -3.6985    -1.4851     1.1612 N.3     
  20 C20           -2.4944    -1.3417     1.9910 C.3     
  21 C21           -1.2564    -1.6410     1.1414 C.3     
  22 C22           -2.3466     0.2134     0.0256 C.3     
  23 C23           -2.4079     0.0971     2.5116 C.3     
  24 C24           -2.3104     1.0460     1.3116 C.3     
  25 H25            1.2064    -1.7840    -0.0179 H       
  26 H26            3.3443    -0.5188    -0.0315 H       
  27 H27            0.1086     4.7105     1.0529 H       
  28 H28            0.7374     5.3323    -0.4918 H       
  29 H29           -0.5506     4.1038    -0.4851 H       
  30 H30            5.2595     2.9983     0.4825 H       
  31 H31            5.0015     1.2371     0.4769 H       
  32 H32            5.4215     4.2441    -1.6771 H       
  33 H33            5.2789     3.3705    -3.2214 H       
  34 H34            3.8500     3.5764    -2.1801 H       
  35 H35            7.0071     0.9480    -0.9847 H       
  36 H36            7.1225     1.8355    -2.5233 H       
  37 H37            7.2651     2.7091    -0.9790 H       
  38 H38            3.4878     1.1044    -2.1881 H       
  39 H39            4.9167     0.8984    -3.2293 H       
  40 H40            4.8013     0.0108    -1.6908 H       
  41 H41           -3.6722    -1.1988    -0.9197 H       
  42 H42           -4.4975     0.0775     0.0066 H       
  43 H43           -4.5330    -1.3169     1.7029 H       
  44 H44           -2.5414    -2.0391     2.8274 H       
  45 H45           -1.3120    -2.6627     0.7658 H       
  46 H46           -0.3606    -1.5268     1.7518 H       
  47 H47           -2.3020     0.8687    -0.8443 H       
  48 H48           -3.3008     0.3309     3.0914 H       
  49 H49           -1.5226     0.2071     3.1379 H       
  50 H50           -1.3748     1.6030     1.3607 H       
  51 H51           -3.1523     1.7382     1.3232 H       
@<TRIPOS>BOND
   1    1    2 ar
   2    1    5 ar
   3    2    3 ar
   4    2   16 1
   5    3    4 ar
   6    3   25 1
   7    4    7 ar
   8    4   26 1
   9    5    7 ar
  10    5    6 1
  11    6    9 am
  12    6   10 1
  13    7    8 1
  14    8    9 am
  15    8   11 1
  16    9   17 2
  17   10   27 1
  18   10   28 1
  19   10   29 1
  20   11   12 1
  21   11   30 1
  22   11   31 1
  23   12   13 1
  24   12   14 1
  25   12   15 1
  26   13   32 1
  27   13   33 1
  28   13   34 1
  29   14   35 1
  30   14   36 1
  31   14   37 1
  32   15   38 1
  33   15   39 1
  34   15   40 1
  35   16   22 1
  36   16   21 1
  37   18   19 1
  38   18   22 1
  39   18   41 1
  40   18   42 1
  41   19   20 1
  42   19   43 1
  43   20   21 1
  44   20   23 1
  45   20   44 1
  46   21   45 1
  47   21   46 1
  48   22   24 1
  49   22   47 1
  50   23   24 1
  51   23   48 1
  52   23   49 1
  53   24   50 1
  54   24   51 1

#	End of record

