#	Name: ASD02038028
#	Creating user name:	WinNT
#	Creation time:	15. 06. 2019 20:16

#	Modifying user name:	WinNT
#	Modification time:	15. 06. 2019 20:16

#	Program:	/corina/corina34_cracker 3.40 0067  02.08.2006

@<TRIPOS>MOLECULE
ASD02038028
  48   50    0    0    0
SMALL
NO_CHARGES


@<TRIPOS>ATOM
   1 C1            -0.0176     1.4478     0.0100 C.3     
   2 O2             0.0021    -0.0041     0.0020 O.3     
   3 N3            -1.2414    -1.9783     0.0033 N.am    
   4 C4            -1.1891    -0.6316     0.0100 C.2     
   5 C5            -1.3607    -5.6208     2.1999 C.3     
   6 O6            -0.2937    -6.5557     2.0286 O.3     
   7 C7            -0.1763    -7.5366     2.9631 C.ar    
   8 C8             0.8374    -8.4774     2.8574 C.ar    
   9 C9            -1.0667    -7.5928     4.0250 C.ar    
  10 C10           -0.9474    -8.5892     4.9743 C.ar    
  11 C11            0.0625    -9.5336     4.8653 C.ar    
  12 C12            0.9566    -9.4737     3.8067 C.ar    
  13 O13           -2.2170     0.0163     0.0233 O.2     
  14 C14            2.0330     2.2150    -1.2029 C.ar    
  15 C15            1.3962     1.9694    -0.0007 C.ar    
  16 C16            3.3296     2.6934    -1.2133 C.ar    
  17 C17            3.9903     2.9265    -0.0203 C.ar    
  18 C18            3.3523     2.6809     1.1825 C.ar    
  19 C19            2.0557     2.2025     1.1917 C.ar    
  20 Cl20           5.6192     3.5268    -0.0327 Cl      
  21 C21           -2.5337    -2.6774     0.0119 C.3     
  22 C22           -2.5466    -3.6755     1.1739 C.3     
  23 C23           -1.3325    -4.6003     1.0603 C.3     
  24 C24           -0.0484    -3.7723     1.1490 C.3     
  25 C25           -0.0072    -2.7753    -0.0190 C.3     
  26 O26            0.1804   -10.5139     5.8003 O.3     
  27 H27           -0.5448     1.8089    -0.8731 H       
  28 H28           -0.5278     1.7993     0.9068 H       
  29 H29           -2.3132    -6.1506     2.1897 H       
  30 H30           -1.2422    -5.1048     3.1527 H       
  31 H31            1.5332    -8.4311     2.0328 H       
  32 H32           -1.8531    -6.8574     4.1099 H       
  33 H33           -1.6404    -8.6325     5.8016 H       
  34 H34            1.7427   -10.2093     3.7216 H       
  35 H35            1.5187     2.0288    -2.1342 H       
  36 H36            3.8271     2.8848    -2.1526 H       
  37 H37            3.8674     2.8631     2.1141 H       
  38 H38            1.5574     2.0112     2.1306 H       
  39 H39           -3.3392    -1.9546     0.1420 H       
  40 H40           -2.6669    -3.2106    -0.9294 H       
  41 H41           -2.5044    -3.1341     2.1190 H       
  42 H42           -3.4604    -4.2683     1.1341 H       
  43 H43           -1.3623    -5.1229     0.1043 H       
  44 H44           -0.0298    -3.2300     2.0944 H       
  45 H45            0.8158    -4.4341     1.0916 H       
  46 H46            0.0662    -3.3187    -0.9609 H       
  47 H47            0.8538    -2.1164     0.0932 H       
  48 H48           -0.3209   -11.3151     5.5955 H       
@<TRIPOS>BOND
   1    1    2 1
   2    1   15 1
   3    1   27 1
   4    1   28 1
   5    2    4 1
   6    3    4 am
   7    3   21 1
   8    3   25 1
   9    4   13 2
  10    5    6 1
  11    5   23 1
  12    5   29 1
  13    5   30 1
  14    6    7 1
  15    7    8 ar
  16    7    9 ar
  17    8   12 ar
  18    8   31 1
  19    9   10 ar
  20    9   32 1
  21   10   11 ar
  22   10   33 1
  23   11   12 ar
  24   11   26 1
  25   12   34 1
  26   14   15 ar
  27   14   16 ar
  28   14   35 1
  29   15   19 ar
  30   16   17 ar
  31   16   36 1
  32   17   18 ar
  33   17   20 1
  34   18   19 ar
  35   18   37 1
  36   19   38 1
  37   21   22 1
  38   21   39 1
  39   21   40 1
  40   22   23 1
  41   22   41 1
  42   22   42 1
  43   23   24 1
  44   23   43 1
  45   24   25 1
  46   24   44 1
  47   24   45 1
  48   25   46 1
  49   25   47 1
  50   26   48 1

#	End of record

