#	Name: ASD00843064
#	Creating user name:	WinNT
#	Creation time:	15. 06. 2019 18:45

#	Modifying user name:	WinNT
#	Modification time:	15. 06. 2019 18:45

#	Program:	/corina/corina34_cracker 3.40 0067  02.08.2006

@<TRIPOS>MOLECULE
ASD00843064
  88   93    0    0    0
SMALL
NO_CHARGES


@<TRIPOS>ATOM
   1 F1            -0.1005    -3.1532     4.7191 F       
   2 N2            -0.0058     1.3210     0.0334 N.ar    
   3 C3             0.0085    -0.0013     0.0173 C.ar    
   4 C4             1.2113    -0.6960    -0.0024 C.ar    
   5 C5             2.3990     0.0142    -0.0049 C.ar    
   6 C6             2.3411     1.4012     0.0125 C.ar    
   7 C7             1.1101     2.0256     0.0315 C.ar    
   8 C8             1.2227    -2.2028    -0.0203 C.3     
   9 C9             0.4754    -2.7243    -1.2289 C.2     
  10 N10            2.5991    -2.7044    -0.0123 N.am    
  11 C11            3.4464    -2.3633    -1.0034 C.2     
  12 N12            4.7400    -2.7368    -0.9424 N.am    
  13 O13            3.0438    -1.7187    -1.9524 O.2     
  14 C14            5.6548    -2.4755    -2.0640 C.3     
  15 C15            6.9055    -1.7773    -1.5195 C.3     
  16 N16            7.4741    -2.5794    -0.4281 N.3     
  17 C17            6.5399    -2.6814     0.7009 C.3     
  18 C18            5.2756    -3.4111     0.2499 C.3     
  19 C19            8.7676    -2.0353     0.0065 C.3     
  20 C20            9.2695    -2.8183     1.2228 C.3     
  21 C21           10.6448    -2.2871     1.6333 C.3     
  22 N22           11.5824    -2.4347     0.5128 N.3     
  23 C23           11.1457    -1.6533    -0.6513 C.3     
  24 C24            9.7854    -2.1656    -1.1301 C.3     
  25 H25           12.5187    -2.1796     0.7889 H       
  26 O26            0.7564    -2.5224    -2.3914 O.2     
  27 N27           -0.5570    -3.4531    -0.7730 N.am    
  28 C28            0.4490    -2.7522     1.1569 C.ar    
  29 C29           -0.6023    -3.4904     0.6228 C.ar    
  30 C30            0.6179    -2.6381     2.5191 C.ar    
  31 C31           -0.2648    -3.2631     3.3827 C.ar    
  32 C32           -1.3277    -4.0095     2.8637 C.ar    
  33 C33           -1.4928    -4.1213     1.4835 C.ar    
  34 C34           -1.0255    -5.8371    -2.0658 C.ar    
  35 C35            0.1529    -5.9990    -2.7803 C.ar    
  36 C36           -1.7067    -6.9433    -1.5944 C.ar    
  37 C37           -1.2163    -8.2127    -1.8328 C.ar    
  38 C38           -0.0380    -8.3799    -2.5470 C.ar    
  39 C39            0.6468    -7.2720    -3.0212 C.ar    
  40 O40            0.4436    -9.6289    -2.7815 O.3     
  41 O41            0.8220    -4.9109    -3.2439 O.3     
  42 C42            2.0280    -5.1523    -3.9714 C.3     
  43 C43           -0.3141   -10.7242    -2.2638 C.3     
  44 C44           -2.2459    -4.6596     3.7496 C.1     
  45 N45           -2.9743    -5.1753     4.4524 N.1     
  46 S46           -1.6500    -4.2195    -1.7529 S.o2    
  47 O47           -2.8315    -4.3878    -0.9816 O.2     
  48 O48           -1.6250    -3.5323    -2.9965 O.2     
  49 O49           -1.1629    -0.6859     0.0203 O.3     
  50 C50           -2.3654     0.0858     0.0414 C.3     
  51 C51           -3.5737    -0.8526     0.0418 C.3     
  52 F52           -3.5487    -1.6456    -1.1105 F       
  53 F53           -3.5265    -1.6733     1.1738 F       
  54 H54            3.3492    -0.4988    -0.0196 H       
  55 H55            3.2494     1.9854     0.0114 H       
  56 H56            1.0595     3.1043     0.0447 H       
  57 H57            2.9007    -3.2820     0.7063 H       
  58 H58            5.9367    -3.4178    -2.5338 H       
  59 H59            5.1645    -1.8314    -2.7940 H       
  60 H60            7.6413    -1.6749    -2.3172 H       
  61 H61            6.6364    -0.7902    -1.1435 H       
  62 H62            7.0105    -3.2347     1.5136 H       
  63 H63            6.2759    -1.6817     1.0460 H       
  64 H64            4.5349    -3.3884     1.0491 H       
  65 H65            5.5183    -4.4442     0.0009 H       
  66 H66            8.6500    -0.9848     0.2726 H       
  67 H67            8.5699    -2.6942     2.0494 H       
  68 H68            9.3488    -3.8751     0.9679 H       
  69 H69           10.5621    -1.2338     1.9014 H       
  70 H70           11.0113    -2.8521     2.4904 H       
  71 H71           11.0607    -0.6030    -0.3726 H       
  72 H72           11.8761    -1.7580    -1.4536 H       
  73 H73            9.8728    -3.2121    -1.4220 H       
  74 H74            9.4544    -1.5753    -1.9845 H       
  75 H75            1.4406    -2.0604     2.9140 H       
  76 H76           -2.3136    -4.6977     1.0831 H       
  77 H77           -2.6237    -6.8152    -1.0385 H       
  78 H78           -1.7501    -9.0756    -1.4628 H       
  79 H79            1.5637    -7.4001    -3.5774 H       
  80 H80            2.7364    -5.6825    -3.3349 H       
  81 H81            1.8069    -5.7569    -4.8510 H       
  82 H82            2.4607    -4.2017    -4.2833 H       
  83 H83           -1.3147   -10.7103    -2.6958 H       
  84 H84            0.1797   -11.6613    -2.5209 H       
  85 H85           -0.3852   -10.6366    -1.1796 H       
  86 H86           -2.3849     0.7037     0.9392 H       
  87 H87           -2.4022     0.7252    -0.8406 H       
  88 H88           -4.4910    -0.2640     0.0578 H       
@<TRIPOS>BOND
   1    1   31 1
   2    2    3 ar
   3    2    7 ar
   4    3    4 ar
   5    3   49 1
   6    4    5 ar
   7    4    8 1
   8    5    6 ar
   9    5   54 1
  10    6    7 ar
  11    6   55 1
  12    7   56 1
  13    8    9 1
  14    8   10 1
  15    8   28 1
  16    9   26 2
  17    9   27 am
  18   10   11 am
  19   10   57 1
  20   11   12 am
  21   11   13 2
  22   12   14 1
  23   12   18 1
  24   14   15 1
  25   14   58 1
  26   14   59 1
  27   15   16 1
  28   15   60 1
  29   15   61 1
  30   16   17 1
  31   16   19 1
  32   17   18 1
  33   17   62 1
  34   17   63 1
  35   18   64 1
  36   18   65 1
  37   19   20 1
  38   19   24 1
  39   19   66 1
  40   20   21 1
  41   20   67 1
  42   20   68 1
  43   21   22 1
  44   21   69 1
  45   21   70 1
  46   22   23 1
  47   22   25 1
  48   23   24 1
  49   23   71 1
  50   23   72 1
  51   24   73 1
  52   24   74 1
  53   27   46 am
  54   27   29 1
  55   28   29 ar
  56   28   30 ar
  57   29   33 ar
  58   30   31 ar
  59   30   75 1
  60   31   32 ar
  61   32   33 ar
  62   32   44 1
  63   33   76 1
  64   34   35 ar
  65   34   36 ar
  66   34   46 1
  67   35   41 1
  68   35   39 ar
  69   36   37 ar
  70   36   77 1
  71   37   38 ar
  72   37   78 1
  73   38   39 ar
  74   38   40 1
  75   39   79 1
  76   40   43 1
  77   41   42 1
  78   42   80 1
  79   42   81 1
  80   42   82 1
  81   43   83 1
  82   43   84 1
  83   43   85 1
  84   44   45 3
  85   46   47 2
  86   46   48 2
  87   49   50 1
  88   50   51 1
  89   50   86 1
  90   50   87 1
  91   51   52 1
  92   51   53 1
  93   51   88 1

#	End of record

