#	Name: ASD01880996
#	Creating user name:	WinNT
#	Creation time:	15. 06. 2019 19:41

#	Modifying user name:	WinNT
#	Modification time:	15. 06. 2019 19:41

#	Program:	/corina/corina34_cracker 3.40 0067  02.08.2006

@<TRIPOS>MOLECULE
ASD01880996
  37   39    0    0    0
SMALL
NO_CHARGES


@<TRIPOS>ATOM
   1 N1            -0.0158     1.3132     0.0093 N.ar    
   2 C2             0.0021    -0.0041     0.0020 C.ar    
   3 N3             1.1308    -0.6841    -0.0124 N.ar    
   4 C4             2.3027    -0.0624    -0.0203 C.ar    
   5 C5             2.3322     1.3204    -0.0131 C.ar    
   6 C6             1.1185     2.0083     0.0022 C.ar    
   7 C7             3.6423     2.0652    -0.0211 C.3     
   8 O8             4.0440     2.3078    -1.3709 O.3     
   9 C9             5.2120     2.9737    -1.5558 C.ar    
  10 C10            5.6618     3.2431    -2.8452 C.ar    
  11 C11            6.8428     3.9169    -3.0320 C.ar    
  12 C12            7.6002     4.3364    -1.9330 C.ar    
  13 C13            7.1441     4.0634    -0.6390 C.ar    
  14 C14            5.9541     3.3906    -0.4581 C.ar    
  15 C15            7.5963     4.3589    -4.2617 C.3     
  16 N16            8.8029     5.0407    -3.7795 N.am    
  17 C17            8.8007     5.0251    -2.4355 C.2     
  18 O18            9.6669     5.5111    -1.7342 O.2     
  19 Cl19           3.7806    -0.9730    -0.0387 Cl      
  20 Cl20           8.0713     4.5759     0.7363 Cl      
  21 N21            1.0948     3.3937     0.0098 N.pl3   
  22 C22            9.4861     7.1022    -4.9040 C.3     
  23 C23            9.8392     5.6401    -4.6239 C.3     
  24 H24           -0.9346    -0.5417     0.0084 H       
  25 H25            3.5230     3.0157     0.4989 H       
  26 H26            4.4026     1.4683     0.4826 H       
  27 H27            5.0822     2.9218    -3.6979 H       
  28 H28            5.6016     3.1801     0.5408 H       
  29 H29            7.8707     3.4932    -4.8645 H       
  30 H30            6.9865     5.0464    -4.8480 H       
  31 H31            1.9264     3.8930     0.0046 H       
  32 H32            0.2467     3.8643     0.0205 H       
  33 H33            8.5256     7.1522    -5.4169 H       
  34 H34            9.4242     7.6478    -3.9625 H       
  35 H35           10.2572     7.5482    -5.5323 H       
  36 H36           10.7997     5.5900    -4.1111 H       
  37 H37            9.9011     5.0944    -5.5655 H       
@<TRIPOS>BOND
   1    1    2 ar
   2    1    6 ar
   3    2    3 ar
   4    2   24 1
   5    3    4 ar
   6    4    5 ar
   7    4   19 1
   8    5    6 ar
   9    5    7 1
  10    6   21 1
  11    7    8 1
  12    7   25 1
  13    7   26 1
  14    8    9 1
  15    9   10 ar
  16    9   14 ar
  17   10   11 ar
  18   10   27 1
  19   11   12 ar
  20   11   15 1
  21   12   13 ar
  22   12   17 1
  23   13   14 ar
  24   13   20 1
  25   14   28 1
  26   15   16 1
  27   15   29 1
  28   15   30 1
  29   16   17 am
  30   16   23 1
  31   17   18 2
  32   21   31 1
  33   21   32 1
  34   22   23 1
  35   22   33 1
  36   22   34 1
  37   22   35 1
  38   23   36 1
  39   23   37 1

#	End of record

