#	Name: ASD02500822
#	Creating user name:	WinNT
#	Creation time:	15. 06. 2019 20:23

#	Modifying user name:	WinNT
#	Modification time:	15. 06. 2019 20:23

#	Program:	/corina/corina34_cracker 3.40 0067  02.08.2006

@<TRIPOS>MOLECULE
ASD02500822
  39   42    0    0    0
SMALL
NO_CHARGES


@<TRIPOS>ATOM
   1 C1            -0.0169     1.3922     0.0097 C.2     
   2 C2             0.0021    -0.0041     0.0020 C.2     
   3 C3            -1.2336    -0.6954     0.0100 C.2     
   4 N4            -2.3826     0.0097     0.0247 N.am    
   5 N5            -2.3712     1.4073     0.0322 N.2     
   6 C6            -1.2531     2.0769     0.0200 C.2     
   7 C7             1.3824     1.8297    -0.0013 C.2     
   8 C8             2.1637     0.6893    -0.0148 C.2     
   9 N9             1.3090    -0.4170    -0.0126 N.pl3   
  10 S10            2.4028     3.2627    -0.0034 S.3     
  11 C11            3.8574     2.2792    -0.0225 C.2     
  12 C12            3.5270     0.9586    -0.0268 C.2     
  13 O13           -1.2582    -1.9154     0.0033 O.2     
  14 C14           -3.6639    -0.7006     0.0325 C.3     
  15 C15           -4.0901    -0.9523     1.4559 C.ar    
  16 C16           -4.6859     0.0593     2.1895 C.ar    
  17 C17           -5.0770    -0.1734     3.4974 C.ar    
  18 C18           -4.8722    -1.4147     4.0687 C.ar    
  19 C19           -4.2770    -2.4243     3.3350 C.ar    
  20 C20           -3.8914    -2.1949     2.0276 C.ar    
  21 F21           -4.8853     1.2728     1.6301 F       
  22 C22            5.1788     2.7850    -0.0328 C.2     
  23 O23            6.1216     2.0200    -0.0463 O.2     
  24 C24            5.4160     4.2732    -0.0271 C.3     
  25 C25            1.7468    -1.8150    -0.0234 C.3     
  26 H26           -1.2712     3.1567     0.0262 H       
  27 H27            4.2713     0.1761    -0.0379 H       
  28 H28           -4.4179    -0.0954    -0.4709 H       
  29 H29           -3.5551    -1.6522    -0.4878 H       
  30 H30           -5.5416     0.6151     4.0708 H       
  31 H31           -5.1767    -1.5964     5.0888 H       
  32 H32           -4.1170    -3.3942     3.7825 H       
  33 H33           -3.4267    -2.9842     1.4555 H       
  34 H34            5.4833     4.6264     1.0019 H       
  35 H35            6.3470     4.4948    -0.5489 H       
  36 H36            4.5893     4.7749    -0.5300 H       
  37 H37            1.8650    -2.1667     1.0015 H       
  38 H38            1.0012    -2.4253    -0.5332 H       
  39 H39            2.6998    -1.8933    -0.5466 H       
@<TRIPOS>BOND
   1    1    2 2
   2    1    7 1
   3    1    6 1
   4    2    3 1
   5    2    9 1
   6    3    4 am
   7    3   13 2
   8    4    5 1
   9    4   14 1
  10    5    6 2
  11    6   26 1
  12    7   10 1
  13    7    8 2
  14    8    9 1
  15    8   12 1
  16    9   25 1
  17   10   11 1
  18   11   12 2
  19   11   22 1
  20   12   27 1
  21   14   15 1
  22   14   28 1
  23   14   29 1
  24   15   16 ar
  25   15   20 ar
  26   16   17 ar
  27   16   21 1
  28   17   18 ar
  29   17   30 1
  30   18   19 ar
  31   18   31 1
  32   19   20 ar
  33   19   32 1
  34   20   33 1
  35   22   23 2
  36   22   24 1
  37   24   34 1
  38   24   35 1
  39   24   36 1
  40   25   37 1
  41   25   38 1
  42   25   39 1

#	End of record

