#	Name: ASD03092743
#	Creating user name:	WinNT
#	Creation time:	15. 06. 2019 20:33

#	Modifying user name:	WinNT
#	Modification time:	15. 06. 2019 20:33

#	Program:	/corina/corina34_cracker 3.40 0067  02.08.2006

@<TRIPOS>MOLECULE
ASD03092743
  33   34    0    0    0
SMALL
NO_CHARGES


@<TRIPOS>ATOM
   1 C1            -0.2403     1.4986     0.1577 C.3     
   2 C2            -0.0617    -0.0336     0.0582 C.3     
   3 C3            -0.6047    -0.5825     1.4130 C.3     
   4 C4            -0.1920     0.5800     2.3833 C.3     
   5 C5            -0.8743     1.7312     1.5632 C.3     
   6 C6            -2.3245     1.1729     1.4344 C.3     
   7 C7            -2.1459    -0.3594     1.3350 C.3     
   8 C8             1.1156     2.2010     0.0614 C.3     
   9 C9            -1.1783     1.9988    -0.9427 C.3     
  10 N10           -0.8462    -0.5689    -1.0625 N.3     
  11 C11            1.4173    -0.3887    -0.1067 C.3     
  12 C12           -0.7828    -2.0362    -1.0961 C.3     
  13 H13           -0.2709    -1.5825     1.6900 H       
  14 H14           -0.6357     0.4641     3.3721 H       
  15 H15            0.8898     0.7025     2.4376 H       
  16 H16           -0.7743     2.7373     1.9704 H       
  17 H17           -2.9106     1.4306     2.3166 H       
  18 H18           -2.8018     1.5591     0.5338 H       
  19 H19           -2.5355    -0.7265     0.3854 H       
  20 H20           -2.6443    -0.8549     2.1682 H       
  21 H21            1.5829     1.9593    -0.8932 H       
  22 H22            0.9722     3.2791     0.1331 H       
  23 H23            1.7575     1.8648     0.8756 H       
  24 H24           -2.1038     1.4236    -0.9204 H       
  25 H25           -1.4016     3.0530    -0.7783 H       
  26 H26           -0.6976     1.8763    -1.9133 H       
  27 H27           -1.8023    -0.2492    -1.0200 H       
  28 H28            1.9773    -0.0212     0.7532 H       
  29 H29            1.5257    -1.4711    -0.1753 H       
  30 H30            1.8027     0.0733    -1.0157 H       
  31 H31           -1.3719    -2.4062    -1.9352 H       
  32 H32            0.2538    -2.3525    -1.2125 H       
  33 H33           -1.1831    -2.4386    -0.1656 H       
@<TRIPOS>BOND
   1    1    2 1
   2    1    8 1
   3    1    9 1
   4    1    5 1
   5    2    3 1
   6    2   10 1
   7    2   11 1
   8    3    4 1
   9    3    7 1
  10    3   13 1
  11    4    5 1
  12    4   14 1
  13    4   15 1
  14    5    6 1
  15    5   16 1
  16    6    7 1
  17    6   17 1
  18    6   18 1
  19    7   19 1
  20    7   20 1
  21    8   21 1
  22    8   22 1
  23    8   23 1
  24    9   24 1
  25    9   25 1
  26    9   26 1
  27   10   12 1
  28   10   27 1
  29   11   28 1
  30   11   29 1
  31   11   30 1
  32   12   31 1
  33   12   32 1
  34   12   33 1

#	End of record

