#	Name: ASD01500001
#	Creating user name:	WinNT
#	Creation time:	15. 06. 2019 19:21

#	Modifying user name:	WinNT
#	Modification time:	15. 06. 2019 19:21

#	Program:	/corina/corina34_cracker 3.40 0067  02.08.2006

@<TRIPOS>MOLECULE
ASD01500001
  78   82    0    0    0
SMALL
NO_CHARGES


@<TRIPOS>ATOM
   1 P1            -0.0180     1.4758     0.0102 P.3     
   2 O2             0.0021    -0.0041     0.0020 O.2     
   3 O3             1.4924     2.0330    -0.0013 O.3     
   4 O4            -0.7967     2.0091    -1.2942 O.3     
   5 O5            -0.7716     1.9950     1.3348 O.3     
   6 C6            -0.4354     1.6326    -2.6245 C.3     
   7 O7            -1.1742     3.7449    -3.6030 O.3     
   8 C8            -1.3752     2.3148    -3.6206 C.3     
   9 C9            -1.0318     1.8857    -5.0644 C.3     
  10 C10           -1.2518     3.1671    -5.8992 C.3     
  11 C11           -1.7020     4.2188    -4.8611 C.3     
  12 O12           -2.2734     2.9589    -6.8764 O.3     
  13 O13           -1.9109     0.8470    -5.5005 O.3     
  14 C14           -1.9703     6.5780    -5.4753 C.2     
  15 C15           -1.4998     7.6688    -6.1070 C.2     
  16 C16           -0.0603     7.7695    -6.5247 C.3     
  17 C17            0.7762     6.7434    -5.8159 C.2     
  18 C18            0.2370     5.7115    -5.2055 C.2     
  19 N19           -1.1395     5.5314    -5.1881 N.pl3   
  20 C20           -2.3784     8.7422    -6.3840 C.2     
  21 N21           -1.9214     9.8413    -7.0161 N.am    
  22 O22           -3.5478     8.6732    -6.0512 O.2     
  23 P23           -0.7058     1.5880     2.8911 P.3     
  24 O24           -0.5959     0.1170     3.0121 O.2     
  25 O25            0.5781     2.2799     3.5729 O.3     
  26 O26           -2.0434     2.0892     3.6339 O.3     
  27 C27           -2.3338     1.7889     5.0005 C.3     
  28 O28           -4.7523     1.7811     4.6601 O.3     
  29 C29           -3.6760     2.4140     5.3859 C.3     
  30 C30           -3.9890     2.1408     6.8737 C.3     
  31 C31           -5.5160     1.9060     6.8992 C.3     
  32 C32           -5.9448     2.0651     5.4237 C.3     
  33 O33           -6.1597     2.8858     7.7162 O.3     
  34 P34           -7.0587     2.5062     8.9968 P.3     
  35 O35           -6.2674     1.6663     9.9235 O.2     
  36 O36           -7.5150     3.8537     9.7506 O.3     
  37 O37           -8.3621     1.6929     8.5154 O.3     
  38 O38           -3.6431     3.2728     7.6743 O.3     
  39 N39           -7.9793    -0.7214     4.4090 N.2     
  40 C40           -6.8257    -0.1438     4.5794 C.2     
  41 N41           -7.0022     1.1063     5.0936 N.pl3   
  42 C42           -8.3517     1.3017     5.2458 C.ar    
  43 N43           -9.1116     2.2978     5.6888 N.ar    
  44 C44          -10.4227     2.1819     5.7128 C.ar    
  45 N45          -11.0454     1.0907     5.3066 N.ar    
  46 C46          -10.3690     0.0428     4.8473 C.ar    
  47 C47           -8.9667     0.1188     4.8018 C.ar    
  48 N48          -11.0305    -1.0968     4.4242 N.pl3   
  49 H49            1.5557     2.9980     0.0033 H       
  50 H50            0.5909     1.9412    -2.8234 H       
  51 H51           -0.5166     0.5508    -2.7307 H       
  52 H52           -2.4131     2.0746    -3.3901 H       
  53 H53            0.0066     1.5610    -5.1296 H       
  54 H54           -0.3220     3.4759    -6.3772 H       
  55 H55           -2.7900     4.2706    -4.8208 H       
  56 H56           -2.0683     2.2653    -7.5183 H       
  57 H57           -1.7400     0.5393    -6.4012 H       
  58 H58           -3.0106     6.5310    -5.1892 H       
  59 H59            0.0127     7.6102    -7.6005 H       
  60 H60            0.3137     8.7647    -6.2844 H       
  61 H61            1.8503     6.8561    -5.8077 H       
  62 H62            0.8740     4.9932    -4.7108 H       
  63 H63           -0.9899     9.8962    -7.2812 H       
  64 H64           -2.5239    10.5774    -7.2060 H       
  65 H65            0.5732     3.2460     3.5306 H       
  66 H66           -2.3853     0.7081     5.1320 H       
  67 H67           -1.5476     2.1953     5.6368 H       
  68 H68           -3.6660     3.4864     5.1910 H       
  69 H69           -3.4602     1.2522     7.2184 H       
  70 H70           -5.7420     0.9013     7.2564 H       
  71 H71           -6.2828     3.0840     5.2345 H       
  72 H72           -8.0611     3.7006    10.5338 H       
  73 H73           -8.9286     2.1838     7.9045 H       
  74 H74           -2.7041     3.5020     7.6465 H       
  75 H75           -5.8694    -0.5892     4.3480 H       
  76 H76          -11.0111     3.0103     6.0789 H       
  77 H77          -11.9989    -1.1373     4.4609 H       
  78 H78          -10.5256    -1.8551     4.0910 H       
@<TRIPOS>BOND
   1    1    2 2
   2    1    3 1
   3    1    4 1
   4    1    5 1
   5    3   49 1
   6    4    6 1
   7    5   23 1
   8    6    8 1
   9    6   50 1
  10    6   51 1
  11    7    8 1
  12    7   11 1
  13    8    9 1
  14    8   52 1
  15    9   10 1
  16    9   13 1
  17    9   53 1
  18   10   11 1
  19   10   12 1
  20   10   54 1
  21   11   19 1
  22   11   55 1
  23   12   56 1
  24   13   57 1
  25   14   15 2
  26   14   19 1
  27   14   58 1
  28   15   16 1
  29   15   20 1
  30   16   17 1
  31   16   59 1
  32   16   60 1
  33   17   18 2
  34   17   61 1
  35   18   19 1
  36   18   62 1
  37   20   21 am
  38   20   22 2
  39   21   63 1
  40   21   64 1
  41   23   24 2
  42   23   25 1
  43   23   26 1
  44   25   65 1
  45   26   27 1
  46   27   29 1
  47   27   66 1
  48   27   67 1
  49   28   29 1
  50   28   32 1
  51   29   30 1
  52   29   68 1
  53   30   31 1
  54   30   38 1
  55   30   69 1
  56   31   32 1
  57   31   33 1
  58   31   70 1
  59   32   41 1
  60   32   71 1
  61   33   34 1
  62   34   35 2
  63   34   36 1
  64   34   37 1
  65   36   72 1
  66   37   73 1
  67   38   74 1
  68   39   40 2
  69   39   47 1
  70   40   41 1
  71   40   75 1
  72   41   42 1
  73   42   43 ar
  74   42   47 ar
  75   43   44 ar
  76   44   45 ar
  77   44   76 1
  78   45   46 ar
  79   46   47 ar
  80   46   48 1
  81   48   77 1
  82   48   78 1

#	End of record

