#	Name: ASD03731557
#	Creating user name:	WinNT
#	Creation time:	15. 06. 2019 20:45

#	Modifying user name:	WinNT
#	Modification time:	15. 06. 2019 20:45

#	Program:	/corina/corina34_cracker 3.40 0067  02.08.2006

@<TRIPOS>MOLECULE
ASD03731557
  39   40    0    0    0
SMALL
NO_CHARGES


@<TRIPOS>ATOM
   1 C1            -0.1551     1.4665     0.0372 C.2     
   2 C2            -0.0990    -0.0068     0.0220 C.ar    
   3 C3             1.1276    -0.6612    -0.1434 C.ar    
   4 C4             1.1744    -2.0406    -0.1565 C.ar    
   5 C5             0.0073    -2.7780    -0.0063 C.ar    
   6 C6            -1.2138    -2.1307     0.1578 C.ar    
   7 C7            -1.2697    -0.7547     0.1784 C.ar    
   8 O8             0.8651     2.1152    -0.0940 O.2     
   9 N9            -1.3377     2.0943     0.1910 N.am    
  10 S10           -1.4007     3.7490     0.2082 S.o2    
  11 O11           -2.7756     4.0453     0.4105 O.2     
  12 O12           -0.4212     4.1271     1.1657 O.2     
  13 C13           -0.8827     4.2390    -1.4598 C.3     
  14 F14            2.2631     0.0560    -0.2904 F       
  15 O15            0.0574    -4.1341    -0.0202 O.3     
  16 C16           -0.1542    -4.7685    -1.2035 C.ar    
  17 C17           -0.0491    -6.1500    -1.2795 C.ar    
  18 C18           -0.2649    -6.7932    -2.4825 C.ar    
  19 C19           -0.5862    -6.0601    -3.6126 C.ar    
  20 C20           -0.6910    -4.6817    -3.5385 C.ar    
  21 C21           -0.4813    -4.0360    -2.3352 C.ar    
  22 F22           -0.7970    -6.6907    -4.7887 F       
  23 C23            0.3010    -6.9481    -0.0500 C.3     
  24 C24           -0.9708    -7.2358     0.7504 C.3     
  25 Cl25          -2.6685    -3.0596     0.3437 Cl      
  26 H26            2.1198    -2.5471    -0.2839 H       
  27 H27           -2.2175    -0.2540     0.3104 H       
  28 H28           -2.1520     1.5769     0.2917 H       
  29 H29           -1.5680     3.8133    -2.1928 H       
  30 H30           -0.8949     5.3260    -1.5395 H       
  31 H31            0.1260     3.8721    -1.6495 H       
  32 H32           -0.1828    -7.8685    -2.5420 H       
  33 H33           -0.9413    -4.1112    -4.4207 H       
  34 H34           -0.5675    -2.9610    -2.2766 H       
  35 H35            0.7639    -7.8891    -0.3473 H       
  36 H36            0.9973    -6.3794     0.5662 H       
  37 H37           -1.6671    -7.8045     0.1342 H       
  38 H38           -0.7176    -7.8131     1.6397 H       
  39 H39           -1.4336    -6.2949     1.0477 H       
@<TRIPOS>BOND
   1    1    2 1
   2    1    8 2
   3    1    9 am
   4    2    3 ar
   5    2    7 ar
   6    3    4 ar
   7    3   14 1
   8    4    5 ar
   9    4   26 1
  10    5    6 ar
  11    5   15 1
  12    6    7 ar
  13    6   25 1
  14    7   27 1
  15    9   10 am
  16    9   28 1
  17   10   11 2
  18   10   12 2
  19   10   13 1
  20   13   29 1
  21   13   30 1
  22   13   31 1
  23   15   16 1
  24   16   17 ar
  25   16   21 ar
  26   17   18 ar
  27   17   23 1
  28   18   19 ar
  29   18   32 1
  30   19   20 ar
  31   19   22 1
  32   20   21 ar
  33   20   33 1
  34   21   34 1
  35   23   24 1
  36   23   35 1
  37   23   36 1
  38   24   37 1
  39   24   38 1
  40   24   39 1

#	End of record

