#	Name: ASD02320043
#	Creating user name:	WinNT
#	Creation time:	15. 06. 2019 20:20

#	Modifying user name:	WinNT
#	Modification time:	15. 06. 2019 20:20

#	Program:	/corina/corina34_cracker 3.40 0067  02.08.2006

@<TRIPOS>MOLECULE
ASD02320043
  88   94    0    0    0
SMALL
NO_CHARGES


@<TRIPOS>ATOM
   1 C1             3.4602     2.4119    -2.9265 C.ar    
   2 C2             3.0310     1.2276    -2.3419 C.ar    
   3 C3             3.7900     0.6091    -1.3722 C.ar    
   4 C4             4.9980     1.1795    -0.9772 C.ar    
   5 C5             5.4386     2.3852    -1.5699 C.ar    
   6 C6             4.6504     2.9929    -2.5514 C.ar    
   7 C7             5.8461     0.5618     0.0529 C.2     
   8 N8             7.0019     1.1906     0.3701 N.am    
   9 C9             7.3502     2.3568    -0.2553 C.2     
  10 N10            6.6099     2.9226    -1.1747 N.2     
  11 O11            5.5209    -0.4757     0.6000 O.2     
  12 C12            8.6201     3.0071     0.1245 C.ar    
  13 C13            8.7000     4.4001     0.1949 C.ar    
  14 C14            9.7435     2.2310     0.4200 C.ar    
  15 C15           10.9264     2.8416     0.7739 C.ar    
  16 C16           11.0032     4.2275     0.8376 C.ar    
  17 C17            9.8867     5.0029     0.5496 C.ar    
  18 C18            7.8853     0.6193     1.3897 C.3     
  19 C19            8.5349    -0.6547     0.8458 C.3     
  20 C20            9.4746    -1.2391     1.9024 C.3     
  21 C21           10.2162    -2.4419     1.3161 C.3     
  22 C22           11.2435    -2.9511     2.3292 C.3     
  23 N23           12.0347    -4.0256     1.7244 N.pl3   
  24 N24           13.2299    -3.8754     1.0199 N.2     
  25 N25           13.7192    -4.9196     0.6016 N.2     
  26 C26           12.8936    -6.0789     0.9644 C.3     
  27 C27           11.7178    -5.4661     1.7538 C.3     
  28 C28           11.6913    -5.9956     3.1890 C.3     
  29 N29           10.6165    -5.3349     3.9335 N.am    
  30 C30           10.9228    -4.3961     4.8808 C.2     
  31 C31            9.3262    -5.6528     3.6764 C.2     
  32 C32            8.2888    -4.9585     4.4529 C.ar    
  33 C33            8.6988    -4.0072     5.4149 C.ar    
  34 N34           10.0144    -3.7668     5.5824 N.2     
  35 C35            6.9322    -5.2145     4.2620 C.ar    
  36 C36            6.0023    -4.5337     5.0172 C.ar    
  37 C37            6.4065    -3.5993     5.9621 C.ar    
  38 C38            7.7311    -3.3333     6.1658 C.ar    
  39 C39           12.3442    -4.0786     5.1231 C.ar    
  40 C40           12.7820    -2.7524     5.0846 C.ar    
  41 C41           14.1089    -2.4603     5.3112 C.ar    
  42 C42           15.0117    -3.4826     5.5773 C.ar    
  43 C43           14.5803    -4.8029     5.6164 C.ar    
  44 C44           13.2539    -5.1028     5.3971 C.ar    
  45 O45            9.0358    -6.4818     2.8337 O.2     
  46 O46           12.1708     4.8255     1.1873 O.3     
  47 S47           13.1191     5.0617     0.0205 S.o2    
  48 O48           14.3357     5.5353     0.5816 O.2     
  49 O49           13.0406     3.9048    -0.8009 O.2     
  50 O50           12.5480     6.2101    -0.7989 O.3     
  51 Na51          12.7925     7.9999     0.0358 Du      
  52 O52           16.3189    -3.1907     5.7992 O.3     
  53 S53           16.6560    -2.9321     7.2607 S.o2    
  54 O54           17.9932    -2.4518     7.2851 O.2     
  55 O55           15.5602    -2.2084     7.8033 O.2     
  56 O56           16.6711    -4.2813     7.9650 O.3     
  57 Na57          18.2808    -5.3826     7.5700 Du      
  58 H58            2.8548     2.8806    -3.6882 H       
  59 H59            2.0939     0.7877    -2.6497 H       
  60 H60            3.4504    -0.3116    -0.9212 H       
  61 H61            4.9739     3.9139    -3.0135 H       
  62 H62            7.8327     5.0035    -0.0288 H       
  63 H63            9.6844     1.1537     0.3714 H       
  64 H64           11.7953     2.2423     1.0025 H       
  65 H65            9.9505     6.0799     0.5999 H       
  66 H66            8.6604     1.3419     1.6450 H       
  67 H67            7.3046     0.3794     2.2804 H       
  68 H68            7.7606    -1.3832     0.6054 H       
  69 H69            9.1026    -0.4175    -0.0539 H       
  70 H70           10.1958    -0.4805     2.2067 H       
  71 H71            8.8944    -1.5569     2.7687 H       
  72 H72            9.5027    -3.2350     1.0924 H       
  73 H73           10.7263    -2.1432     0.4003 H       
  74 H74           11.9033    -2.1335     2.6198 H       
  75 H75           10.7270    -3.3319     3.2103 H       
  76 H76           12.5342    -6.5872     0.0697 H       
  77 H77           13.4564    -6.7664     1.5958 H       
  78 H78           10.7705    -5.6595     1.2506 H       
  79 H79           11.5164    -7.0714     3.1762 H       
  80 H80           12.6472    -5.7886     3.6703 H       
  81 H81            6.6126    -5.9398     3.5284 H       
  82 H82            4.9497    -4.7280     4.8730 H       
  83 H83            5.6630    -3.0756     6.5445 H       
  84 H84            8.0296    -2.6039     6.9042 H       
  85 H85           12.0811    -1.9574     4.8772 H       
  86 H86           14.4482    -1.4354     5.2817 H       
  87 H87           15.2852    -5.5946     5.8232 H       
  88 H88           12.9193    -6.1293     5.4277 H       
@<TRIPOS>BOND
   1    1    2 ar
   2    1    6 ar
   3    1   58 1
   4    2    3 ar
   5    2   59 1
   6    3    4 ar
   7    3   60 1
   8    4    5 ar
   9    4    7 1
  10    5    6 ar
  11    5   10 1
  12    6   61 1
  13    7    8 am
  14    7   11 2
  15    8    9 1
  16    8   18 1
  17    9   10 2
  18    9   12 1
  19   12   13 ar
  20   12   14 ar
  21   13   17 ar
  22   13   62 1
  23   14   15 ar
  24   14   63 1
  25   15   16 ar
  26   15   64 1
  27   16   17 ar
  28   16   46 1
  29   17   65 1
  30   18   19 1
  31   18   66 1
  32   18   67 1
  33   19   20 1
  34   19   68 1
  35   19   69 1
  36   20   21 1
  37   20   70 1
  38   20   71 1
  39   21   22 1
  40   21   72 1
  41   21   73 1
  42   22   23 1
  43   22   74 1
  44   22   75 1
  45   23   24 1
  46   23   27 1
  47   24   25 2
  48   25   26 1
  49   26   27 1
  50   26   76 1
  51   26   77 1
  52   27   28 1
  53   27   78 1
  54   28   29 1
  55   28   79 1
  56   28   80 1
  57   29   30 1
  58   29   31 am
  59   30   39 1
  60   30   34 2
  61   31   32 1
  62   31   45 2
  63   32   33 ar
  64   32   35 ar
  65   33   34 1
  66   33   38 ar
  67   35   36 ar
  68   35   81 1
  69   36   37 ar
  70   36   82 1
  71   37   38 ar
  72   37   83 1
  73   38   84 1
  74   39   40 ar
  75   39   44 ar
  76   40   41 ar
  77   40   85 1
  78   41   42 ar
  79   41   86 1
  80   42   43 ar
  81   42   52 1
  82   43   44 ar
  83   43   87 1
  84   44   88 1
  85   46   47 1
  86   47   48 2
  87   47   49 2
  88   47   50 1
  89   50   51 1
  90   52   53 1
  91   53   54 2
  92   53   55 2
  93   53   56 1
  94   56   57 1

#	End of record

