#	Name: ASD01140570
#	Creating user name:	WinNT
#	Creation time:	15. 06. 2019 19:01

#	Modifying user name:	WinNT
#	Modification time:	15. 06. 2019 19:01

#	Program:	/corina/corina34_cracker 3.40 0067  02.08.2006

@<TRIPOS>MOLECULE
ASD01140570
  57   60    0    0    0
SMALL
NO_CHARGES


@<TRIPOS>ATOM
   1 C1            -0.3000     1.4976    -0.3549 C.3     
   2 C2            -0.2205    -0.0292    -0.2950 C.3     
   3 C3             0.4359    -0.4546     1.0198 C.3     
   4 C4             1.8455     0.1347     1.1012 C.3     
   5 C5             1.7651     1.6618     1.0405 C.3     
   6 C6             1.1119     2.0835    -0.2783 C.3     
   7 C7             1.9452     1.5553    -1.4467 C.3     
   8 C8             3.1764     2.2481     1.1194 C.3     
   9 C9             4.0115     1.7274    -0.0522 C.3     
  10 C10            3.3600     2.1498    -1.3697 C.3     
  11 C11            2.1230     1.4574    -3.9681 C.3     
  12 C12            1.2656     1.8958    -2.7687 C.3     
  13 C13            3.4690     2.1424    -3.8351 C.3     
  14 C14            4.4966     1.8423    -4.9213 C.3     
  15 C15            4.1429     1.5981    -2.5465 C.3     
  16 C16            5.5751     2.1205    -2.7012 C.3     
  17 C17            5.8708     1.8825    -4.2073 C.3     
  18 C18           -0.3992     0.0569     2.1954 C.3     
  19 H19            1.1686     2.0285     1.8758 H       
  20 H20            3.3059     3.2372    -1.4216 H       
  21 C21            3.2700     3.6547    -3.7154 C.3     
  22 C22            4.4379     2.8928    -6.0003 C.2     
  23 O23            5.1676     3.8537    -5.9478 O.2     
  24 C24            3.4687     2.7443    -7.1446 C.3     
  25 O25            0.5119    -1.8805     1.0746 O.3     
  26 H26            2.0142     0.4703    -1.3678 H       
  27 H27            4.1233     0.5083    -2.5373 H       
  28 H28            1.0583     3.1711    -0.3270 H       
  29 H29           -0.7692     1.8008    -1.2908 H       
  30 H30           -0.8917     1.8641     0.4841 H       
  31 H31           -1.2254    -0.4479    -0.3515 H       
  32 H32            0.3732    -0.3953    -1.1326 H       
  33 H33            2.3119    -0.1675     2.0389 H       
  34 H34            2.4411    -0.2313     0.2649 H       
  35 H35            3.1212     3.3357     1.0711 H       
  36 H36            3.6420     1.9493     2.0586 H       
  37 H37            5.0174     2.1431     0.0054 H       
  38 H38            4.0646     0.6397    -0.0055 H       
  39 H39            2.2545     0.3755    -3.9541 H       
  40 H40            1.6425     1.7613    -4.8981 H       
  41 H41            0.3015     1.3893    -2.8151 H       
  42 H42            1.1044     2.9726    -2.8200 H       
  43 H43            4.3202     0.8539    -5.3456 H       
  44 H44            5.6263     3.1825    -2.4612 H       
  45 H45            6.2634     1.5495    -2.0781 H       
  46 H46            6.3899     0.9334    -4.3412 H       
  47 H47            6.4747     2.6988    -4.6036 H       
  48 H48           -1.4032    -0.3634     2.1379 H       
  49 H49            0.0684    -0.2461     3.1322 H       
  50 H50           -0.4576     1.1445     2.1536 H       
  51 H51            2.6211     3.8697    -2.8664 H       
  52 H52            4.2357     4.1376    -3.5661 H       
  53 H53            2.8113     4.0342    -4.6285 H       
  54 H54            2.8996     1.8228    -7.0215 H       
  55 H55            2.7862     3.5941    -7.1553 H       
  56 H56            4.0192     2.7085    -8.0847 H       
  57 H57           -0.3470    -2.3222     1.0285 H       
@<TRIPOS>BOND
   1    1    2 1
   2    1    6 1
   3    1   29 1
   4    1   30 1
   5    2    3 1
   6    2   31 1
   7    2   32 1
   8    3    4 1
   9    3   18 1
  10    3   25 1
  11    4    5 1
  12    4   33 1
  13    4   34 1
  14    5    6 1
  15    5    8 1
  16    5   19 1
  17    6    7 1
  18    6   28 1
  19    7   10 1
  20    7   26 1
  21    7   12 1
  22    8    9 1
  23    8   35 1
  24    8   36 1
  25    9   10 1
  26    9   37 1
  27    9   38 1
  28   10   15 1
  29   10   20 1
  30   11   12 1
  31   11   13 1
  32   11   39 1
  33   11   40 1
  34   12   41 1
  35   12   42 1
  36   13   15 1
  37   13   21 1
  38   13   14 1
  39   14   17 1
  40   14   22 1
  41   14   43 1
  42   15   16 1
  43   15   27 1
  44   16   17 1
  45   16   44 1
  46   16   45 1
  47   17   46 1
  48   17   47 1
  49   18   48 1
  50   18   49 1
  51   18   50 1
  52   21   51 1
  53   21   52 1
  54   21   53 1
  55   22   23 2
  56   22   24 1
  57   24   54 1
  58   24   55 1
  59   24   56 1
  60   25   57 1

#	End of record

