#	Name: ASD01208446
#	Creating user name:	WinNT
#	Creation time:	15. 06. 2019 19:09

#	Modifying user name:	WinNT
#	Modification time:	15. 06. 2019 19:09

#	Program:	/corina/corina34_cracker 3.40 0067  02.08.2006

@<TRIPOS>MOLECULE
ASD01208446
  66   68    0    0    0
SMALL
NO_CHARGES


@<TRIPOS>ATOM
   1 N1             0.0845     1.1107    -0.6408 N.am    
   2 C2             0.0086    -0.0742     0.0584 C.2     
   3 C3             1.1858    -0.2443     0.7186 C.2     
   4 C4             2.0026     0.8610     0.4180 C.2     
   5 C5             1.3128     1.6715    -0.4098 C.2     
   6 C6            -0.8833     1.6273    -1.4237 C.2     
   7 O7            -1.8927     0.9888    -1.6425 O.2     
   8 O8            -0.7310     2.8508    -1.9628 O.3     
   9 C9            -1.1465    -0.9962     0.0864 C.ar    
  10 C10           -0.9401    -2.3764     0.0920 C.ar    
  11 C11           -2.0250    -3.2367     0.1183 C.ar    
  12 C12           -3.3159    -2.7282     0.1390 C.ar    
  13 C13           -3.5257    -1.3566     0.1336 C.ar    
  14 C14           -2.4458    -0.4889     0.1132 C.ar    
  15 O15           -4.7918    -0.8637     0.1540 O.3     
  16 C16           -5.4749    -0.9082     1.3279 C.ar    
  17 C17           -6.8057    -0.5180     1.3728 C.ar    
  18 C18           -7.4979    -0.5646     2.5673 C.ar    
  19 C19           -6.8656    -0.9992     3.7177 C.ar    
  20 C20           -5.5395    -1.3886     3.6756 C.ar    
  21 C21           -4.8444    -1.3493     2.4825 C.ar    
  22 S22           -7.7512    -1.0563     5.2399 S.o2    
  23 O23           -6.7456    -0.9253     6.2354 O.2     
  24 O24           -8.7673    -0.0742     5.0913 O.2     
  25 C25           -8.4744    -2.7194     5.2807 C.3     
  26 O26           -1.8250    -4.5809     0.1232 O.3     
  27 C27           -0.4780    -5.0370    -0.0172 C.3     
  28 C28           -0.4767    -6.4510    -0.6015 C.3     
  29 C29            0.2013    -5.0509     1.3536 C.3     
  30 O30           -1.0855    -7.3506     0.3270 O.3     
  31 C31           -1.1352    -8.7057    -0.1240 C.3     
  32 C32           -1.8136     3.3437    -2.7954 C.3     
  33 C33           -3.0998     3.4154    -1.9699 C.3     
  34 C34           -1.4626     4.7393    -3.3150 C.3     
  35 C35           -2.0192     2.3957    -3.9786 C.3     
  36 H36            1.4458    -1.0758     1.3568 H       
  37 H37            3.0042     1.0301     0.7850 H       
  38 H38            1.6686     2.6044    -0.8214 H       
  39 H39            0.0643    -2.7730     0.0755 H       
  40 H40           -4.1598    -3.4019     0.1591 H       
  41 H41           -2.6097     0.5786     0.1135 H       
  42 H42           -7.2998    -0.1778     0.4747 H       
  43 H43           -8.5337    -0.2610     2.6028 H       
  44 H44           -5.0479    -1.7273     4.5756 H       
  45 H45           -3.8098    -1.6574     2.4494 H       
  46 H46           -7.6781    -3.4629     5.2450 H       
  47 H47           -9.0470    -2.8442     6.1997 H       
  48 H48           -9.1326    -2.8505     4.4219 H       
  49 H49            0.0644    -4.3675    -0.6848 H       
  50 H50           -1.0378    -6.4586    -1.5359 H       
  51 H51            0.5498    -6.7646    -0.7915 H       
  52 H52           -0.3412    -5.7203     2.0212 H       
  53 H53            1.2287    -5.3987     1.2464 H       
  54 H54            0.2003    -4.0435     1.7698 H       
  55 H55           -1.6112    -9.3245     0.6367 H       
  56 H56           -1.7100    -8.7600    -1.0485 H       
  57 H57           -0.1224    -9.0661    -0.3041 H       
  58 H58           -2.9533     4.0907    -1.1270 H       
  59 H59           -3.9125     3.7854    -2.5949 H       
  60 H60           -3.3499     2.4212    -1.5997 H       
  61 H61           -0.5463     4.6881    -3.9031 H       
  62 H62           -2.2753     5.1093    -3.9401 H       
  63 H63           -1.3161     5.4146    -2.4721 H       
  64 H64           -2.2693     1.4015    -3.6084 H       
  65 H65           -2.8319     2.7657    -4.6037 H       
  66 H66           -1.1029     2.3446    -4.5667 H       
@<TRIPOS>BOND
   1    1    2 1
   2    1    5 1
   3    1    6 am
   4    2    3 2
   5    2    9 1
   6    3    4 1
   7    3   36 1
   8    4    5 2
   9    4   37 1
  10    5   38 1
  11    6    7 2
  12    6    8 1
  13    8   32 1
  14    9   10 ar
  15    9   14 ar
  16   10   11 ar
  17   10   39 1
  18   11   12 ar
  19   11   26 1
  20   12   13 ar
  21   12   40 1
  22   13   14 ar
  23   13   15 1
  24   14   41 1
  25   15   16 1
  26   16   17 ar
  27   16   21 ar
  28   17   18 ar
  29   17   42 1
  30   18   19 ar
  31   18   43 1
  32   19   20 ar
  33   19   22 1
  34   20   21 ar
  35   20   44 1
  36   21   45 1
  37   22   23 2
  38   22   24 2
  39   22   25 1
  40   25   46 1
  41   25   47 1
  42   25   48 1
  43   26   27 1
  44   27   28 1
  45   27   29 1
  46   27   49 1
  47   28   30 1
  48   28   50 1
  49   28   51 1
  50   29   52 1
  51   29   53 1
  52   29   54 1
  53   30   31 1
  54   31   55 1
  55   31   56 1
  56   31   57 1
  57   32   33 1
  58   32   35 1
  59   32   34 1
  60   33   58 1
  61   33   59 1
  62   33   60 1
  63   34   61 1
  64   34   62 1
  65   34   63 1
  66   35   64 1
  67   35   65 1
  68   35   66 1

#	End of record

