#	Name: ASD01884124
#	Creating user name:	WinNT
#	Creation time:	15. 06. 2019 19:47

#	Modifying user name:	WinNT
#	Modification time:	15. 06. 2019 19:47

#	Program:	/corina/corina34_cracker 3.40 0067  02.08.2006

@<TRIPOS>MOLECULE
ASD01884124
  48   52    0    0    0
SMALL
NO_CHARGES


@<TRIPOS>ATOM
   1 C1            -0.7977    -0.0456     1.1124 C.2     
   2 C2             0.0021    -0.0041     0.0020 C.2     
   3 C3            -0.4103     0.7374    -1.1262 C.2     
   4 C4            -1.5833     1.4004    -1.1118 C.2     
   5 N5            -2.3878     1.3660    -0.0102 N.pl3   
   6 C6            -2.0196     0.6495     1.1026 C.2     
   7 N7            -2.9861     0.8040     1.9949 N.2     
   8 C8            -3.5964     1.9227     0.2892 C.2     
   9 N9            -3.9068     1.5576     1.5053 N.2     
  10 C10           -4.4216     2.8010    -0.6157 C.3     
  11 Cl11          -0.3126    -0.9510     2.5119 Cl      
  12 N12            1.2150    -0.6886    -0.0142 N.pl3   
  13 C13            1.2556    -2.1553     0.0876 C.3     
  14 C14            2.1180    -2.6989    -1.0565 C.3     
  15 N15            3.4298    -2.0382    -1.0332 N.3     
  16 C16            3.3032    -0.5937    -1.2688 C.3     
  17 C17            2.4890     0.0358    -0.1396 C.3     
  18 C18            4.3006    -2.6215    -1.9565 C.ar    
  19 C19            5.5967    -2.1403    -2.0912 C.ar    
  20 C20            6.4552    -2.7197    -3.0047 C.ar    
  21 C21            6.0259    -3.7777    -3.7849 C.ar    
  22 C22            4.7362    -4.2591    -3.6533 C.ar    
  23 C23            3.8742    -3.6878    -2.7380 C.ar    
  24 C24           -5.3681     1.9315    -1.4458 C.3     
  25 C25           -6.3771     2.6466    -2.3466 C.3     
  26 C26           -5.1756     1.9280    -2.9637 C.3     
  27 H27            0.2171     0.7737    -2.0044 H       
  28 H28           -1.8894     1.9647    -1.9803 H       
  29 H29           -5.0035     3.4985    -0.0132 H       
  30 H30           -3.7623     3.3581    -1.2813 H       
  31 H31            1.6916    -2.4441     1.0439 H       
  32 H32            0.2451    -2.5560     0.0067 H       
  33 H33            2.2500    -3.7739    -0.9334 H       
  34 H34            1.6270    -2.4991    -2.0089 H       
  35 H35            4.2947    -0.1419    -1.2996 H       
  36 H36            2.7956    -0.4232    -2.2182 H       
  37 H37            2.2952     1.0838    -0.3681 H       
  38 H38            3.0410    -0.0416     0.7971 H       
  39 H39            5.9326    -1.3138    -1.4824 H       
  40 H40            7.4629    -2.3458    -3.1102 H       
  41 H41            6.6991    -4.2287    -4.4988 H       
  42 H42            4.4041    -5.0855    -4.2642 H       
  43 H43            2.8672    -4.0645    -2.6355 H       
  44 H44           -5.6843     1.0001    -0.9762 H       
  45 H45           -7.3571     2.1856    -2.4698 H       
  46 H46           -6.3667     3.7366    -2.3477 H       
  47 H47           -4.3747     2.5452    -3.3709 H       
  48 H48           -5.3651     0.9941    -3.4929 H       
@<TRIPOS>BOND
   1    1    2 2
   2    1   11 1
   3    1    6 1
   4    2    3 1
   5    2   12 1
   6    3    4 2
   7    3   27 1
   8    4    5 1
   9    4   28 1
  10    5    6 1
  11    5    8 1
  12    6    7 2
  13    7    9 1
  14    8    9 2
  15    8   10 1
  16   10   24 1
  17   10   29 1
  18   10   30 1
  19   12   13 1
  20   12   17 1
  21   13   14 1
  22   13   31 1
  23   13   32 1
  24   14   15 1
  25   14   33 1
  26   14   34 1
  27   15   16 1
  28   15   18 1
  29   16   17 1
  30   16   35 1
  31   16   36 1
  32   17   37 1
  33   17   38 1
  34   18   19 ar
  35   18   23 ar
  36   19   20 ar
  37   19   39 1
  38   20   21 ar
  39   20   40 1
  40   21   22 ar
  41   21   41 1
  42   22   23 ar
  43   22   42 1
  44   23   43 1
  45   24   25 1
  46   24   26 1
  47   24   44 1
  48   25   26 1
  49   25   45 1
  50   25   46 1
  51   26   47 1
  52   26   48 1

#	End of record

