#	Name: ASD03430635
#	Creating user name:	WinNT
#	Creation time:	15. 06. 2019 20:41

#	Modifying user name:	WinNT
#	Modification time:	15. 06. 2019 20:41

#	Program:	/corina/corina34_cracker 3.40 0067  02.08.2006

@<TRIPOS>MOLECULE
ASD03430635
  18   18    0    0    0
SMALL
NO_CHARGES


@<TRIPOS>ATOM
   1 C1            -0.0167     1.3783     0.0096 C.ar    
   2 C2             0.0021    -0.0041     0.0020 C.ar    
   3 C3             1.2082    -0.6788    -0.0132 C.ar    
   4 C4             2.3960     0.0288    -0.0212 C.ar    
   5 C5             2.3773     1.4107    -0.0145 C.ar    
   6 C6             1.1708     2.0856     0.0021 C.ar    
   7 C7            -1.2926    -0.7753     0.0108 C.3     
   8 F8            -1.1022    -1.9988     0.6619 F       
   9 F9            -2.2712    -0.0361     0.6840 F       
  10 C10           -1.3319     2.1140     0.0199 C.3     
  11 Br11          -1.8950     2.4239     1.8778 Br      
  12 H12            1.2229    -1.7586    -0.0184 H       
  13 H13            3.3386    -0.4985    -0.0324 H       
  14 H14            3.3052     1.9634    -0.0201 H       
  15 H15            1.1561     3.1655     0.0081 H       
  16 H16           -1.6150    -0.9557    -1.0147 H       
  17 H17           -1.2169     3.0709    -0.4893 H       
  18 H18           -2.0859     1.5175    -0.4937 H       
@<TRIPOS>BOND
   1    1    2 ar
   2    1    6 ar
   3    1   10 1
   4    2    3 ar
   5    2    7 1
   6    3    4 ar
   7    3   12 1
   8    4    5 ar
   9    4   13 1
  10    5    6 ar
  11    5   14 1
  12    6   15 1
  13    7    8 1
  14    7    9 1
  15    7   16 1
  16   10   11 1
  17   10   17 1
  18   10   18 1

#	End of record

