#	Name: ASD01913329
#	Creating user name:	WinNT
#	Creation time:	15. 06. 2019 20:01

#	Modifying user name:	WinNT
#	Modification time:	15. 06. 2019 20:01

#	Program:	/corina/corina34_cracker 3.40 0067  02.08.2006

@<TRIPOS>MOLECULE
ASD01913329
  26   28    0    0    0
SMALL
NO_CHARGES


@<TRIPOS>ATOM
   1 C1            -0.0166     1.3765     0.0096 C.2     
   2 C2             0.0021    -0.0041     0.0020 C.2     
   3 C3             1.2499    -0.6727    -0.0135 C.2     
   4 N4             2.3635     0.0159    -0.0204 N.2     
   5 C5             2.3514     1.3567    -0.0131 C.2     
   6 N6             1.1685     2.0507     0.0019 N.pl3   
   7 C7            -1.2215    -0.7480     0.0102 C.1     
   8 C8            -2.2246    -1.3579     0.0169 C.1     
   9 C9            -3.4482    -2.1018     0.0250 C.ar    
  10 C10           -3.4205    -3.4989     0.0173 C.ar    
  11 C11           -4.6030    -4.2087     0.0257 C.ar    
  12 C12           -5.8148    -3.5407     0.0413 C.ar    
  13 C13           -5.8501    -2.1573     0.0486 C.ar    
  14 C14           -4.6756    -1.4342     0.0466 C.ar    
  15 C15            3.3711     2.2994    -0.0178 C.2     
  16 C16            2.7831     3.5557    -0.0054 C.2     
  17 N17            1.4768     3.4160     0.0063 N.2     
  18 H18           -0.9539     1.9131     0.0170 H       
  19 H19            1.2833    -1.7522    -0.0192 H       
  20 H20           -2.4755    -4.0216     0.0043 H       
  21 H21           -4.5832    -5.2885     0.0197 H       
  22 H22           -6.7376    -4.1017     0.0475 H       
  23 H23           -6.7995    -1.6427     0.0601 H       
  24 H24           -4.7046    -0.3546     0.0527 H       
  25 H25            4.4309     2.0919    -0.0290 H       
  26 H26            3.3134     4.4965    -0.0051 H       
@<TRIPOS>BOND
   1    1    2 2
   2    1    6 1
   3    1   18 1
   4    2    3 1
   5    2    7 1
   6    3    4 2
   7    3   19 1
   8    4    5 1
   9    5    6 1
  10    5   15 2
  11    6   17 1
  12    7    8 3
  13    8    9 1
  14    9   10 ar
  15    9   14 ar
  16   10   11 ar
  17   10   20 1
  18   11   12 ar
  19   11   21 1
  20   12   13 ar
  21   12   22 1
  22   13   14 ar
  23   13   23 1
  24   14   24 1
  25   15   16 1
  26   15   25 1
  27   16   17 2
  28   16   26 1

#	End of record

