#	Name: ASD01918503
#	Creating user name:	WinNT
#	Creation time:	15. 06. 2019 20:11

#	Modifying user name:	WinNT
#	Modification time:	15. 06. 2019 20:11

#	Program:	/corina/corina34_cracker 3.40 0067  02.08.2006

@<TRIPOS>MOLECULE
ASD01918503
  38   41    0    0    0
SMALL
NO_CHARGES


@<TRIPOS>ATOM
   1 C1            -0.0144     1.2113     0.0087 C.2     
   2 O2             0.0104    -0.0039     0.0192 O.2     
   3 C3             1.2504     1.9763    -0.0209 C.ar    
   4 C4             2.3739     1.4996     0.6563 C.ar    
   5 C5             3.5511     2.2183     0.6247 C.ar    
   6 C6             3.6195     3.4091    -0.0763 C.ar    
   7 C7             2.5095     3.8873    -0.7498 C.ar    
   8 C8             1.3278     3.1755    -0.7310 C.ar    
   9 C9            -1.2480     3.3296     0.1378 C.3     
  10 C10           -2.3334     3.6597     1.1344 C.2     
  11 C11           -3.2236     2.7587     1.6022 C.2     
  12 C12           -3.2617     1.3051     1.2067 C.3     
  13 C13           -2.4635     1.1241    -0.0907 C.3     
  14 N14           -1.1950     1.8614     0.0185 N.am    
  15 O15           -4.0312     3.4032     2.4574 O.3     
  16 C16           -3.6280     4.6872     2.5084 C.2     
  17 N17           -2.5984     4.8361     1.7045 N.2     
  18 C18           -4.2409     5.7515     3.3310 C.ar    
  19 C19           -3.7201     7.0453     3.2879 C.ar    
  20 C20           -4.3037     8.0312     4.0630 C.ar    
  21 C21           -5.3921     7.6922     4.8585 C.ar    
  22 C22           -5.8574     6.3867     4.8524 C.ar    
  23 N23           -5.2859     5.4693     4.1005 N.ar    
  24 F24           -5.9900     8.6259     5.6304 F       
  25 H25            2.3217     0.5703     1.2042 H       
  26 H26            4.4210     1.8507     1.1486 H       
  27 H27            4.5433     3.9681    -0.0976 H       
  28 H28            2.5694     4.8176    -1.2951 H       
  29 H29            0.4635     3.5473    -1.2610 H       
  30 H30           -1.4856     3.7721    -0.8296 H       
  31 H31           -0.2897     3.7076     0.4943 H       
  32 H32           -2.8170     0.6998     1.9966 H       
  33 H33           -4.2949     0.9973     1.0458 H       
  34 H34           -2.2570     0.0653    -0.2468 H       
  35 H35           -3.0403     1.5117    -0.9305 H       
  36 H36           -2.8728     7.2737     2.6584 H       
  37 H37           -3.9222     9.0415     4.0506 H       
  38 H38           -6.7025     6.1194     5.4694 H       
@<TRIPOS>BOND
   1    1    2 2
   2    1    3 1
   3    1   14 am
   4    3    4 ar
   5    3    8 ar
   6    4    5 ar
   7    4   25 1
   8    5    6 ar
   9    5   26 1
  10    6    7 ar
  11    6   27 1
  12    7    8 ar
  13    7   28 1
  14    8   29 1
  15    9   10 1
  16    9   14 1
  17    9   30 1
  18    9   31 1
  19   10   11 2
  20   10   17 1
  21   11   12 1
  22   11   15 1
  23   12   13 1
  24   12   32 1
  25   12   33 1
  26   13   14 1
  27   13   34 1
  28   13   35 1
  29   15   16 1
  30   16   17 2
  31   16   18 1
  32   18   19 ar
  33   18   23 ar
  34   19   20 ar
  35   19   36 1
  36   20   21 ar
  37   20   37 1
  38   21   22 ar
  39   21   24 1
  40   22   23 ar
  41   22   38 1

#	End of record

