#	Name: ASD01903219
#	Creating user name:	WinNT
#	Creation time:	15. 06. 2019 19:54

#	Modifying user name:	WinNT
#	Modification time:	15. 06. 2019 19:54

#	Program:	/corina/corina34_cracker 3.40 0067  02.08.2006

@<TRIPOS>MOLECULE
ASD01903219
  25   27    0    0    0
SMALL
NO_CHARGES


@<TRIPOS>ATOM
   1 S1            -0.0218     1.7568     0.0117 S.3     
   2 C2             0.0021    -0.0041     0.0020 C.2     
   3 N3             1.2315    -0.4176    -0.0119 N.2     
   4 C4             2.1784     0.5110    -0.0160 C.2     
   5 C5             1.7401     1.7814    -0.0050 C.2     
   6 N6            -1.1197    -0.8220     0.0090 N.pl3   
   7 C7            -2.3867    -0.2604     0.0244 C.ar    
   8 C8             3.6242     0.1703    -0.0316 C.2     
   9 C9             4.6411     0.8894    -0.6884 C.2     
  10 N10            5.7765     0.2797    -0.4702 N.2     
  11 N11            5.5315    -0.8441     0.3282 N.pl3   
  12 C12            4.2082    -0.8924     0.5924 C.2     
  13 N13           -3.4464    -1.0555     0.0309 N.ar    
  14 C14           -4.6694    -0.5520     0.0460 C.ar    
  15 C15           -4.8339     0.8244     0.0550 C.ar    
  16 C16           -3.7036     1.6268     0.0478 C.ar    
  17 N17           -2.5092     1.0588     0.0377 N.ar    
  18 Cl18           2.7378     3.2020    -0.0074 Cl      
  19 H19           -1.0167    -1.7865     0.0032 H       
  20 H20            4.5063     1.7883    -1.2716 H       
  21 H21            6.1976    -1.4761     0.6410 H       
  22 H22            3.7027    -1.6412     1.1842 H       
  23 H23           -5.5294    -1.2052     0.0509 H       
  24 H24           -5.8212     1.2620     0.0670 H       
  25 H25           -3.7972     2.7027     0.0542 H       
@<TRIPOS>BOND
   1    1    2 1
   2    1    5 1
   3    2    3 2
   4    2    6 1
   5    3    4 1
   6    4    5 2
   7    4    8 1
   8    5   18 1
   9    6    7 1
  10    6   19 1
  11    7   13 ar
  12    7   17 ar
  13    8    9 1
  14    8   12 2
  15    9   10 2
  16    9   20 1
  17   10   11 1
  18   11   12 1
  19   11   21 1
  20   12   22 1
  21   13   14 ar
  22   14   15 ar
  23   14   23 1
  24   15   16 ar
  25   15   24 1
  26   16   17 ar
  27   16   25 1

#	End of record

