#	Name: ASD01881465
#	Creating user name:	WinNT
#	Creation time:	15. 06. 2019 19:42

#	Modifying user name:	WinNT
#	Modification time:	15. 06. 2019 19:42

#	Program:	/corina/corina34_cracker 3.40 0067  02.08.2006

@<TRIPOS>MOLECULE
ASD01881465
  54   58    0    0    0
SMALL
NO_CHARGES


@<TRIPOS>ATOM
   1 C1            -0.0187     1.5258     0.0104 C.3     
   2 C2             1.1260    10.0927     4.2829 C.ar    
   3 C3             1.3147     9.0040     3.4572 C.ar    
   4 C4            -0.0080    10.1745     5.0783 C.ar    
   5 C5            -0.9582     9.1594     5.0462 C.ar    
   6 C6            -0.7751     8.0676     4.2221 C.ar    
   7 C7             0.3647     7.9838     3.4216 C.ar    
   8 C8             0.5648     6.8137     2.5352 C.2     
   9 C9             0.5743     6.9719     1.1621 C.2     
  10 C10            0.7542     5.5230     3.0867 C.2     
  11 C11            0.9364     4.4613     2.2795 C.2     
  12 N12            0.9421     4.6074     0.9222 N.pl3   
  13 C13            0.7669     5.8432     0.3475 C.2     
  14 C14            1.0994     3.7357    -0.1122 C.2     
  15 N15            1.0158     4.4223    -1.2223 N.2     
  16 N16            0.8203     5.6675    -0.9640 N.2     
  17 C17            1.3287     2.2506     0.0015 C.3     
  18 O18           -0.1903    11.2486     5.8909 O.3     
  19 C19            0.0021    -0.0041     0.0020 C.3     
  20 C20           -0.3944     0.7486     1.2737 C.3     
  21 F21           -2.0612     9.2422     5.8219 F       
  22 C22            0.8250    12.2540     5.8749 C.3     
  23 C23            0.4537    13.3582     6.8308 C.ar    
  24 C24            0.8561    13.3035     8.1506 C.ar    
  25 N25            0.5363    14.2650     8.9955 N.ar    
  26 C26           -0.1767    15.3129     8.6169 C.ar    
  27 C27           -0.6152    15.4336     7.3048 C.ar    
  28 C28           -0.2916    14.4440     6.3927 C.ar    
  29 O29           -0.4828    16.2787     9.5193 O.3     
  30 C30           -0.0031    16.0961    10.8529 C.3     
  31 C31            0.3805     8.3342     0.5478 C.3     
  32 F32            1.6286     8.9090     0.2847 F       
  33 F33           -0.3366     8.2094    -0.6469 F       
  34 F34           -0.3304     9.1492     1.4354 F       
  35 H35           -0.8227     2.0212    -0.5339 H       
  36 H36            1.8641    10.8805     4.3136 H       
  37 H37            2.1977     8.9419     2.8384 H       
  38 H38           -1.5128     7.2792     4.1969 H       
  39 H39            0.7524     5.3902     4.1585 H       
  40 H40            1.0806     3.4818     2.7111 H       
  41 H41            1.8633     2.0353     0.9266 H       
  42 H42            1.9198     1.9082    -0.8479 H       
  43 H43           -0.7885    -0.5151    -0.5475 H       
  44 H44            0.9756    -0.4941    -0.0099 H       
  45 H45            0.3183     0.7538     2.0984 H       
  46 H46           -1.4458     0.7328     1.5608 H       
  47 H47            1.7756    11.8152     6.1782 H       
  48 H48            0.9175    12.6609     4.8679 H       
  49 H49            1.4397    12.4628     8.4956 H       
  50 H50           -1.1978    16.2901     6.9992 H       
  51 H51           -0.6184    14.5112     5.3656 H       
  52 H52           -0.3172    16.9377    11.4704 H       
  53 H53           -0.4115    15.1724    11.2627 H       
  54 H54            1.0854    16.0392    10.8429 H       
@<TRIPOS>BOND
   1    1   19 1
   2    1   17 1
   3    1   20 1
   4    1   35 1
   5    2    3 ar
   6    2    4 ar
   7    2   36 1
   8    3    7 ar
   9    3   37 1
  10    4    5 ar
  11    4   18 1
  12    5    6 ar
  13    5   21 1
  14    6    7 ar
  15    6   38 1
  16    7    8 1
  17    8    9 2
  18    8   10 1
  19    9   31 1
  20    9   13 1
  21   10   11 2
  22   10   39 1
  23   11   12 1
  24   11   40 1
  25   12   13 1
  26   12   14 1
  27   13   16 2
  28   14   15 2
  29   14   17 1
  30   15   16 1
  31   17   41 1
  32   17   42 1
  33   18   22 1
  34   19   20 1
  35   19   43 1
  36   19   44 1
  37   20   45 1
  38   20   46 1
  39   22   23 1
  40   22   47 1
  41   22   48 1
  42   23   24 ar
  43   23   28 ar
  44   24   25 ar
  45   24   49 1
  46   25   26 ar
  47   26   27 ar
  48   26   29 1
  49   27   28 ar
  50   27   50 1
  51   28   51 1
  52   29   30 1
  53   30   52 1
  54   30   53 1
  55   30   54 1
  56   31   32 1
  57   31   33 1
  58   31   34 1

#	End of record

