#	Name: ASD01230405
#	Creating user name:	WinNT
#	Creation time:	15. 06. 2019 19:14

#	Modifying user name:	WinNT
#	Modification time:	15. 06. 2019 19:14

#	Program:	/corina/corina34_cracker 3.40 0067  02.08.2006

@<TRIPOS>MOLECULE
ASD01230405
  47   49    0    0    0
SMALL
NO_CHARGES


@<TRIPOS>ATOM
   1 C1             0.5043     0.4447    -1.7131 C.ar    
   2 C2            -0.1156    -0.1200    -0.6135 C.ar    
   3 C3             0.4450     0.0126     0.6435 C.ar    
   4 C4             1.6264     0.7099     0.8043 C.ar    
   5 C5             2.2510     1.2779    -0.2977 C.ar    
   6 C6             1.6858     1.1431    -1.5586 C.ar    
   7 N7             3.4503     1.9868    -0.1376 N.pl3   
   8 N8             4.5516     1.6021     0.6402 N.2     
   9 N9             5.4593     2.5093     0.5357 N.2     
  10 C10            5.0253     3.4894    -0.2753 C.2     
  11 C11            3.7695     3.1691    -0.7076 C.2     
  12 C12            2.9053     3.9804    -1.6382 C.3     
  13 C13            2.0320     4.9347    -0.8211 C.3     
  14 C14            1.1606     5.7642    -1.7664 C.3     
  15 C15            5.7798     4.7029    -0.6415 C.2     
  16 O16            5.2836     5.5256    -1.3868 O.2     
  17 N17            7.0191     4.8999    -0.1498 N.am    
  18 C18            7.7685     6.1051    -0.5134 C.3     
  19 C19            7.3748     7.2515     0.4203 C.3     
  20 C20            9.2682     5.8323    -0.3818 C.3     
  21 C21           10.0507     7.0910    -0.7616 C.3     
  22 C22            9.6571     8.2373     0.1721 C.3     
  23 C23            8.1574     8.5101     0.0406 C.3     
  24 H24            0.0664     0.3357    -2.6943 H       
  25 H25           -1.0396    -0.6653    -0.7368 H       
  26 H26           -0.0416    -0.4292     1.5005 H       
  27 H27            2.0636     0.8135     1.7864 H       
  28 H28            2.1697     1.5836    -2.4178 H       
  29 H29            3.5389     4.5558    -2.3133 H       
  30 H30            2.2690     3.3121    -2.2183 H       
  31 H31            1.3942     4.3591    -0.1503 H       
  32 H32            2.6683     5.5990    -0.2365 H       
  33 H33            0.5384     6.4441    -1.1843 H       
  34 H34            1.7984     6.3398    -2.4372 H       
  35 H35            0.5243     5.0999    -2.3510 H       
  36 H36            7.4150     4.2436     0.4448 H       
  37 H37            7.5380     6.3795    -1.5428 H       
  38 H38            6.3064     7.4458     0.3266 H       
  39 H39            7.6053     6.9771     1.4497 H       
  40 H40            9.4987     5.5579     0.6476 H       
  41 H41            9.5486     5.0156    -1.0470 H       
  42 H42           11.1192     6.8966    -0.6679 H       
  43 H43            9.8203     7.3654    -1.7910 H       
  44 H44            9.8875     7.9630     1.2015 H       
  45 H45           10.2146     9.1341    -0.0984 H       
  46 H46            7.9269     8.7845    -0.9888 H       
  47 H47            7.8769     9.3268     0.7058 H       
@<TRIPOS>BOND
   1    1    2 ar
   2    1    6 ar
   3    1   24 1
   4    2    3 ar
   5    2   25 1
   6    3    4 ar
   7    3   26 1
   8    4    5 ar
   9    4   27 1
  10    5    6 ar
  11    5    7 1
  12    6   28 1
  13    7    8 1
  14    7   11 1
  15    8    9 2
  16    9   10 1
  17   10   11 2
  18   10   15 1
  19   11   12 1
  20   12   13 1
  21   12   29 1
  22   12   30 1
  23   13   14 1
  24   13   31 1
  25   13   32 1
  26   14   33 1
  27   14   34 1
  28   14   35 1
  29   15   16 2
  30   15   17 am
  31   17   18 1
  32   17   36 1
  33   18   20 1
  34   18   19 1
  35   18   37 1
  36   19   23 1
  37   19   38 1
  38   19   39 1
  39   20   21 1
  40   20   40 1
  41   20   41 1
  42   21   22 1
  43   21   42 1
  44   21   43 1
  45   22   23 1
  46   22   44 1
  47   22   45 1
  48   23   46 1
  49   23   47 1

#	End of record

