#	Name: ASD02198028
#	Creating user name:	WinNT
#	Creation time:	15. 06. 2019 20:18

#	Modifying user name:	WinNT
#	Modification time:	15. 06. 2019 20:18

#	Program:	/corina/corina34_cracker 3.40 0067  02.08.2006

@<TRIPOS>MOLECULE
ASD02198028
  44   46    0    0    0
SMALL
NO_CHARGES


@<TRIPOS>ATOM
   1 N1             0.1159     1.2132     0.2399 N.pl3   
   2 C2             0.1127    -0.1583     0.1572 C.2     
   3 C3            -1.0234    -0.9424     0.1908 C.2     
   4 C4            -2.3722    -0.3888     0.3201 C.2     
   5 S5             1.5103    -1.1206    -0.0081 S.3     
   6 C6             0.5688    -2.6029    -0.0256 C.2     
   7 C7            -0.7686    -2.3097     0.0900 C.2     
   8 C8             1.1047    -3.8997    -0.1451 C.2     
   9 O9             0.3792    -4.8725    -0.0272 O.2     
  10 C10            2.5483    -4.0817    -0.4138 C.ar    
  11 N11           -1.7624    -3.2742     0.1071 N.pl3   
  12 C12            1.3275     1.9048     0.3437 C.ar    
  13 C13            1.4770     3.1449    -0.2682 C.ar    
  14 O14           -3.0072    -0.0957    -0.6751 O.2     
  15 C15            2.6764     3.8253    -0.1626 C.ar    
  16 C16            3.7251     3.2733     0.5498 C.ar    
  17 C17            3.5789     2.0403     1.1586 C.ar    
  18 C18            2.3818     1.3576     1.0626 C.ar    
  19 C19            3.2634    -3.0967    -1.0968 C.ar    
  20 C20            4.6087    -3.2719    -1.3444 C.ar    
  21 C21            5.2502    -4.4226    -0.9171 C.ar    
  22 C22            4.5457    -5.4035    -0.2389 C.ar    
  23 C23            3.2014    -5.2365     0.0199 C.ar    
  24 F24            0.4526     3.6836    -0.9650 F       
  25 O25           -2.9109    -0.2037     1.5427 O.3     
  26 C26           -4.2525     0.3493     1.5950 C.3     
  27 C27           -4.6912     0.4858     3.0544 C.3     
  28 Cl28           6.9437    -4.6367    -1.2334 Cl      
  29 H29           -0.7216     1.7021     0.2222 H       
  30 H30           -1.5285    -4.2129     0.0350 H       
  31 H31           -2.6922    -3.0111     0.1913 H       
  32 H32            2.7941     4.7883    -0.6371 H       
  33 H33            4.6610     3.8063     0.6307 H       
  34 H34            4.4006     1.6123     1.7135 H       
  35 H35            2.2691     0.3949     1.5390 H       
  36 H36            2.7641    -2.1993    -1.4310 H       
  37 H37            5.1631    -2.5104    -1.8728 H       
  38 H38            5.0510    -6.2989     0.0917 H       
  39 H39            2.6531    -6.0018     0.5491 H       
  40 H40           -4.2599     1.3304     1.1201 H       
  41 H41           -4.9396    -0.3139     1.0696 H       
  42 H42           -5.6983     0.9009     3.0937 H       
  43 H43           -4.6838    -0.4952     3.5293 H       
  44 H44           -4.0041     1.1490     3.5798 H       
@<TRIPOS>BOND
   1    1    2 1
   2    1   12 1
   3    1   29 1
   4    2    3 2
   5    2    5 1
   6    3    4 1
   7    3    7 1
   8    4   14 2
   9    4   25 1
  10    5    6 1
  11    6    7 2
  12    6    8 1
  13    7   11 1
  14    8    9 2
  15    8   10 1
  16   10   19 ar
  17   10   23 ar
  18   11   30 1
  19   11   31 1
  20   12   13 ar
  21   12   18 ar
  22   13   15 ar
  23   13   24 1
  24   15   16 ar
  25   15   32 1
  26   16   17 ar
  27   16   33 1
  28   17   18 ar
  29   17   34 1
  30   18   35 1
  31   19   20 ar
  32   19   36 1
  33   20   21 ar
  34   20   37 1
  35   21   22 ar
  36   21   28 1
  37   22   23 ar
  38   22   38 1
  39   23   39 1
  40   25   26 1
  41   26   27 1
  42   26   40 1
  43   26   41 1
  44   27   42 1
  45   27   43 1
  46   27   44 1

#	End of record

