#	Name: ASD06660170
#	Creating user name:	WinNT
#	Creation time:	15. 06. 2019 21:08

#	Modifying user name:	WinNT
#	Modification time:	15. 06. 2019 21:08

#	Program:	/corina/corina34_cracker 3.40 0067  02.08.2006

@<TRIPOS>MOLECULE
ASD06660170
  45   46    0    0    0
SMALL
NO_CHARGES


@<TRIPOS>ATOM
   1 C1             0.0021     1.5546    -0.2373 C.2     
   2 N2            -0.1373     0.2146    -0.2746 N.am    
   3 O3             1.0854     2.0459     0.0073 O.2     
   4 O4            -1.0580     2.3483    -0.4765 O.3     
   5 C5             0.9440    -0.5793    -0.1437 C.2     
   6 O6             2.0512    -0.0899    -0.0822 O.2     
   7 N7             1.3166    -4.5713     1.2739 N.3     
   8 C8             1.9786    -4.2623     0.0001 C.3     
   9 C9             2.1509    -2.7475    -0.1325 C.3     
  10 C10            0.7764    -2.0753    -0.0739 C.3     
  11 C11            0.0882    -2.4523     1.2409 C.3     
  12 C12           -0.0243    -3.9757     1.3336 C.3     
  13 C13           -1.3931    -0.3473    -0.4475 C.2     
  14 N14           -1.5940    -1.4068    -1.1562 N.2     
  15 C15           -3.0212    -1.7568    -1.1490 C.3     
  16 C16           -3.6671    -0.6677    -0.2693 C.3     
  17 N17           -2.5221     0.1711     0.1231 N.pl3   
  18 C18           -0.8344     3.7818    -0.4196 C.3     
  19 C19            0.2169     4.1757    -1.4591 C.3     
  20 C20           -2.1444     4.5145    -0.7163 C.3     
  21 C21           -0.3401     4.1658     0.9765 C.3     
  22 H22            1.2768    -5.5677     1.4284 H       
  23 H23            2.9566    -4.7428    -0.0269 H       
  24 H24            1.3696    -4.6321    -0.8248 H       
  25 H25            2.7713    -2.3789     0.6844 H       
  26 H26            2.6282    -2.5175    -1.0850 H       
  27 H27            0.1695    -2.4134    -0.9138 H       
  28 H28            0.6761    -2.0791     2.0794 H       
  29 H29           -0.9083    -2.0114     1.2696 H       
  30 H30           -0.6240    -4.3468     0.5025 H       
  31 H31           -0.5011    -4.2480     2.2752 H       
  32 H32           -3.4282    -1.7230    -2.1596 H       
  33 H33           -3.1708    -2.7425    -0.7084 H       
  34 H34           -4.3924    -0.0902    -0.8425 H       
  35 H35           -4.1348    -1.1106     0.6100 H       
  36 H36           -2.5623     0.9582     0.6884 H       
  37 H37           -0.1353     3.9021    -2.4537 H       
  38 H38            0.3847     5.2518    -1.4164 H       
  39 H39            1.1502     3.6537    -1.2478 H       
  40 H40           -2.8934     4.2339     0.0243 H       
  41 H41           -1.9766     5.5906    -0.6735 H       
  42 H42           -2.4966     4.2409    -1.7109 H       
  43 H43            0.5932     3.6439     1.1878 H       
  44 H44           -0.1723     5.2420     1.0192 H       
  45 H45           -1.0891     3.8852     1.7170 H       
@<TRIPOS>BOND
   1    1    2 am
   2    1    3 2
   3    1    4 1
   4    2    5 am
   5    2   13 1
   6    4   18 1
   7    5    6 2
   8    5   10 1
   9    7    8 1
  10    7   12 1
  11    7   22 1
  12    8    9 1
  13    8   23 1
  14    8   24 1
  15    9   10 1
  16    9   25 1
  17    9   26 1
  18   10   11 1
  19   10   27 1
  20   11   12 1
  21   11   28 1
  22   11   29 1
  23   12   30 1
  24   12   31 1
  25   13   14 2
  26   13   17 1
  27   14   15 1
  28   15   16 1
  29   15   32 1
  30   15   33 1
  31   16   17 1
  32   16   34 1
  33   16   35 1
  34   17   36 1
  35   18   19 1
  36   18   21 1
  37   18   20 1
  38   19   37 1
  39   19   38 1
  40   19   39 1
  41   20   40 1
  42   20   41 1
  43   20   42 1
  44   21   43 1
  45   21   44 1
  46   21   45 1

#	End of record

