#	Name: ASD02198576
#	Creating user name:	WinNT
#	Creation time:	15. 06. 2019 20:19

#	Modifying user name:	WinNT
#	Modification time:	15. 06. 2019 20:19

#	Program:	/corina/corina34_cracker 3.40 0067  02.08.2006

@<TRIPOS>MOLECULE
ASD02198576
  52   56    0    0    0
SMALL
NO_CHARGES


@<TRIPOS>ATOM
   1 C1             0.0071     1.5097     0.1334 C.2     
   2 C2             0.0746     0.1698    -0.0948 C.2     
   3 N3            -1.0519    -0.5606    -0.2646 N.pl3   
   4 N4            -2.2299    -0.0573    -0.2242 N.2     
   5 C5            -2.4378     1.2254    -0.0114 C.2     
   6 C6            -1.2794     2.1065     0.1922 C.2     
   7 C7            -0.9241    -1.9344    -0.4963 C.ar    
   8 C8            -1.3791    -3.8766    -1.8437 C.ar    
   9 C9            -0.6631    -4.6619    -0.9425 C.ar    
  10 C10           -0.0886    -4.0851     0.1729 C.ar    
  11 C11           -0.2168    -2.7276     0.3986 C.ar    
  12 C12           -3.8111     1.7682     0.0276 C.2     
  13 N13           -4.3739     2.4806     1.0489 N.pl3   
  14 N14           -5.6856     2.7987     0.6752 N.2     
  15 C15           -5.9152     2.3057    -0.5157 C.2     
  16 C16           -4.7637     1.6565    -0.9613 C.2     
  17 C17           -3.7508     2.8296     2.2539 C.ar    
  18 C18           -2.9577     1.9049     2.9204 C.ar    
  19 O19           -1.4175     3.3043     0.3938 O.2     
  20 C20           -3.9203     4.1029     2.7816 C.ar    
  21 C21           -3.3043     4.4440     3.9697 C.ar    
  22 C22           -2.5193     3.5193     4.6336 C.ar    
  23 C23           -2.3443     2.2522     4.1081 C.ar    
  24 C24           -1.5094    -2.5077    -1.6186 C.ar    
  25 F25           -2.2027    -1.7407    -2.4882 F       
  26 O26            1.1343     2.2511     0.3051 O.3     
  27 C27            2.3828     1.5594     0.2345 C.3     
  28 C28           -1.9971    -4.4960    -3.0434 C.2     
  29 C29           -1.3765    -5.3218    -3.9345 C.2     
  30 C30           -3.3322    -4.3426    -3.4648 C.2     
  31 N31           -3.4956    -5.0397    -4.5580 N.2     
  32 N32           -2.2824    -5.6635    -4.8733 N.pl3   
  33 C33           -2.0390    -6.5362    -6.0245 C.3     
  34 H34            1.0380    -0.3160    -0.1413 H       
  35 H35           -0.5576    -5.7225    -1.1163 H       
  36 H36            0.4652    -4.6965     0.8699 H       
  37 H37            0.2344    -2.2822     1.2729 H       
  38 H38           -6.8414     2.3915    -1.0644 H       
  39 H39           -4.6430     1.1512    -1.9081 H       
  40 H40           -2.8209     0.9151     2.5106 H       
  41 H41           -4.5330     4.8257     2.2633 H       
  42 H42           -3.4354     5.4342     4.3804 H       
  43 H43           -2.0383     3.7886     5.5624 H       
  44 H44           -1.7310     1.5320     4.6292 H       
  45 H45            3.1987     2.2657     0.3880 H       
  46 H46            2.4168     0.7914     1.0073 H       
  47 H47            2.4851     1.0934    -0.7455 H       
  48 H48           -0.3464    -5.6436    -3.8952 H       
  49 H49           -4.0893    -3.7522    -2.9702 H       
  50 H50           -1.7050    -5.9362    -6.8711 H       
  51 H51           -1.2703    -7.2662    -5.7709 H       
  52 H52           -2.9604    -7.0554    -6.2881 H       
@<TRIPOS>BOND
   1    1    2 2
   2    1   26 1
   3    1    6 1
   4    2    3 1
   5    2   34 1
   6    3    4 1
   7    3    7 1
   8    4    5 2
   9    5    6 1
  10    5   12 1
  11    6   19 2
  12    7   24 ar
  13    7   11 ar
  14    8    9 ar
  15    8   28 1
  16    8   24 ar
  17    9   10 ar
  18    9   35 1
  19   10   11 ar
  20   10   36 1
  21   11   37 1
  22   12   13 1
  23   12   16 2
  24   13   14 1
  25   13   17 1
  26   14   15 2
  27   15   16 1
  28   15   38 1
  29   16   39 1
  30   17   20 ar
  31   17   18 ar
  32   18   23 ar
  33   18   40 1
  34   20   21 ar
  35   20   41 1
  36   21   22 ar
  37   21   42 1
  38   22   23 ar
  39   22   43 1
  40   23   44 1
  41   24   25 1
  42   26   27 1
  43   27   45 1
  44   27   46 1
  45   27   47 1
  46   28   29 2
  47   28   30 1
  48   29   32 1
  49   29   48 1
  50   30   31 2
  51   30   49 1
  52   31   32 1
  53   32   33 1
  54   33   50 1
  55   33   51 1
  56   33   52 1

#	End of record

