#	Name: ASD01140251
#	Creating user name:	WinNT
#	Creation time:	15. 06. 2019 19:00

#	Modifying user name:	WinNT
#	Modification time:	15. 06. 2019 19:00

#	Program:	/corina/corina34_cracker 3.40 0067  02.08.2006

@<TRIPOS>MOLECULE
ASD01140251
  73   78    0    0    0
SMALL
NO_CHARGES


@<TRIPOS>ATOM
   1 C1            -0.0167     1.3818     0.0096 C.ar    
   2 C2             0.0021    -0.0041     0.0020 C.ar    
   3 C3             1.2005    -0.6806    -0.0007 C.ar    
   4 C4             2.4172     0.0223     0.0037 C.ar    
   5 C5             2.3885     1.4178    -0.0127 C.ar    
   6 C6             1.1682     2.0871     0.0021 C.ar    
   7 C7             3.6553    -0.7578     0.0564 C.2     
   8 N8             4.7834    -0.5192    -0.6112 N.am    
   9 C9             4.8990     0.6022    -1.5500 C.3     
  10 C10            4.6734     1.8742    -0.7745 C.2     
  11 N11            3.5542     2.1852    -0.0764 N.pl3   
  12 Cl12          -1.4912    -0.8895    -0.0036 Cl      
  13 C13            3.7661     3.3904     0.5212 C.2     
  14 O14            3.6538    -1.7282     0.7889 O.2     
  15 C15            5.5376     2.9166    -0.6338 C.2     
  16 N16            4.9434     3.8295     0.1784 N.2     
  17 C17            6.8703     3.0332    -1.2471 C.2     
  18 O18            7.6230     4.1282    -1.0204 O.3     
  19 O19            7.2922     2.1422    -1.9580 O.2     
  20 C20            8.9268     4.1753    -1.6577 C.3     
  21 C21            9.6288     5.4832    -1.2867 C.3     
  22 C22           11.0027     5.5328    -1.9583 C.3     
  23 C23           11.7047     6.8406    -1.5873 C.3     
  24 C24           13.0786     6.8903    -2.2588 C.3     
  25 O25           13.7448     8.1315    -1.9068 O.3     
  26 C26           14.9746     8.3329    -2.4205 C.2     
  27 C27           15.7098     9.5686    -2.1066 C.2     
  28 O28           15.4764     7.4941    -3.1429 O.2     
  29 N29           15.2746    10.5871    -1.3173 N.2     
  30 C30           16.9539     9.9013    -2.5476 C.2     
  31 N31           17.2439    11.1261    -2.0460 N.pl3   
  32 C32           16.1895    11.5132    -1.2754 C.2     
  33 C33           17.8671     9.0691    -3.4111 C.3     
  34 N34           19.0966     8.8196    -2.6513 N.am    
  35 C35           19.8775     9.8186    -2.2377 C.2     
  36 C36           19.6553    11.2535    -2.4305 C.ar    
  37 C37           18.4051    11.8587    -2.2983 C.ar    
  38 C38           20.7643    12.0510    -2.7583 C.ar    
  39 C39           20.6246    13.4109    -2.9175 C.ar    
  40 C40           19.3849    14.0082    -2.7521 C.ar    
  41 C41           18.2852    13.2382    -2.4442 C.ar    
  42 Cl42          22.0049    14.3807    -3.3273 Cl      
  43 C43           19.4759     7.4396    -2.3388 C.3     
  44 O44           20.8846     9.5035    -1.6337 O.2     
  45 C45            5.9369    -1.3978    -0.4022 C.3     
  46 H46           -0.9592     1.9092     0.0170 H       
  47 H47            1.2058    -1.7606    -0.0058 H       
  48 H48            1.1491     3.1669     0.0070 H       
  49 H49            5.8946     0.6116    -1.9935 H       
  50 H50            4.1460     0.5081    -2.3324 H       
  51 H51            3.0713     3.8990     1.1731 H       
  52 H52            9.5277     3.3315    -1.3186 H       
  53 H53            8.8045     4.1228    -2.7396 H       
  54 H54            9.0279     6.3270    -1.6259 H       
  55 H55            9.7511     5.5357    -0.2049 H       
  56 H56           11.6036     4.6890    -1.6192 H       
  57 H57           10.8804     5.4803    -3.0401 H       
  58 H58           11.1038     7.6845    -1.9264 H       
  59 H59           11.8270     6.8932    -0.5054 H       
  60 H60           13.6795     6.0465    -1.9197 H       
  61 H61           12.9563     6.8378    -3.3407 H       
  62 H62           16.1230    12.4373    -0.7203 H       
  63 H63           17.3844     8.1224    -3.6537 H       
  64 H64           18.1027     9.6099    -4.3277 H       
  65 H65           21.7342    11.5934    -2.8860 H       
  66 H66           19.2814    15.0773    -2.8643 H       
  67 H67           17.3214    13.7081    -2.3150 H       
  68 H68           20.1017     7.0446    -3.1391 H       
  69 H69           20.0299     7.4187    -1.4004 H       
  70 H70           18.5782     6.8285    -2.2444 H       
  71 H71            5.6783    -2.1710     0.3214 H       
  72 H72            6.2150    -1.8634    -1.3477 H       
  73 H73            6.7756    -0.8129    -0.0247 H       
@<TRIPOS>BOND
   1    1    2 ar
   2    1    6 ar
   3    1   46 1
   4    2    3 ar
   5    2   12 1
   6    3    4 ar
   7    3   47 1
   8    4    5 ar
   9    4    7 1
  10    5    6 ar
  11    5   11 1
  12    6   48 1
  13    7    8 am
  14    7   14 2
  15    8    9 1
  16    8   45 1
  17    9   10 1
  18    9   49 1
  19    9   50 1
  20   10   11 1
  21   10   15 2
  22   11   13 1
  23   13   16 2
  24   13   51 1
  25   15   16 1
  26   15   17 1
  27   17   18 1
  28   17   19 2
  29   18   20 1
  30   20   21 1
  31   20   52 1
  32   20   53 1
  33   21   22 1
  34   21   54 1
  35   21   55 1
  36   22   23 1
  37   22   56 1
  38   22   57 1
  39   23   24 1
  40   23   58 1
  41   23   59 1
  42   24   25 1
  43   24   60 1
  44   24   61 1
  45   25   26 1
  46   26   27 1
  47   26   28 2
  48   27   29 1
  49   27   30 2
  50   29   32 2
  51   30   31 1
  52   30   33 1
  53   31   32 1
  54   31   37 1
  55   32   62 1
  56   33   34 1
  57   33   63 1
  58   33   64 1
  59   34   35 am
  60   34   43 1
  61   35   36 1
  62   35   44 2
  63   36   37 ar
  64   36   38 ar
  65   37   41 ar
  66   38   39 ar
  67   38   65 1
  68   39   40 ar
  69   39   42 1
  70   40   41 ar
  71   40   66 1
  72   41   67 1
  73   43   68 1
  74   43   69 1
  75   43   70 1
  76   45   71 1
  77   45   72 1
  78   45   73 1

#	End of record

