#	Name: ASD01903001
#	Creating user name:	WinNT
#	Creation time:	15. 06. 2019 19:54

#	Modifying user name:	WinNT
#	Modification time:	15. 06. 2019 19:54

#	Program:	/corina/corina34_cracker 3.40 0067  02.08.2006

@<TRIPOS>MOLECULE
ASD01903001
  24   25    0    0    0
SMALL
NO_CHARGES


@<TRIPOS>ATOM
   1 C1             2.1041     1.3948     0.7646 C.ar    
   2 C2             2.1194     0.0140     0.7494 C.ar    
   3 C3             1.2131    -0.6809    -0.0321 C.ar    
   4 C4             0.2886     0.0061    -0.8009 C.ar    
   5 C5             0.2694     1.3882    -0.7891 C.ar    
   6 C6             1.1778     2.0869    -0.0051 C.ar    
   7 N7             1.1604     3.4856     0.0092 N.am    
   8 C8            -0.0113     4.1459    -0.0787 C.2     
   9 O9            -1.0455     3.5292    -0.2557 O.2     
  10 C10           -0.0399     5.6073     0.0390 C.2     
  11 N11            1.0462     6.4289     0.2394 N.pl3   
  12 C12            0.6144     7.7126     0.2928 C.2     
  13 C13           -0.7302     7.7298     0.1302 C.2     
  14 C14           -1.1590     6.4093    -0.0368 C.2     
  15 Cl15           1.2356    -2.4167    -0.0492 Cl      
  16 Cl16          -0.8464    -0.8690    -1.7806 Cl      
  17 H17            2.8092     1.9361     1.3780 H       
  18 H18            2.8396    -0.5241     1.3478 H       
  19 H19           -0.4511     1.9240    -1.3892 H       
  20 H20            1.9916     3.9802     0.0824 H       
  21 H21            1.9673     6.1377     0.3277 H       
  22 H22            1.2404     8.5802     0.4408 H       
  23 H23           -1.3590     8.6078     0.1263 H       
  24 H24           -2.1759     6.0793    -0.1899 H       
@<TRIPOS>BOND
   1    1    2 ar
   2    1    6 ar
   3    1   17 1
   4    2    3 ar
   5    2   18 1
   6    3    4 ar
   7    3   15 1
   8    4    5 ar
   9    4   16 1
  10    5    6 ar
  11    5   19 1
  12    6    7 1
  13    7    8 am
  14    7   20 1
  15    8    9 2
  16    8   10 1
  17   10   11 1
  18   10   14 2
  19   11   12 1
  20   11   21 1
  21   12   13 2
  22   12   22 1
  23   13   14 1
  24   13   23 1
  25   14   24 1

#	End of record

