#	Name: ASD01920043
#	Creating user name:	WinNT
#	Creation time:	15. 06. 2019 20:11

#	Modifying user name:	WinNT
#	Modification time:	15. 06. 2019 20:11

#	Program:	/corina/corina34_cracker 3.40 0067  02.08.2006

@<TRIPOS>MOLECULE
ASD01920043
  54   56    0    0    0
SMALL
NO_CHARGES


@<TRIPOS>ATOM
   1 N1            -0.0165     1.3635     0.0095 N.pl3   
   2 C2             0.0021    -0.0041     0.0020 C.2     
   3 C3            -1.2606    -0.4618     0.0116 C.2     
   4 C4            -2.1316     0.7217     0.0263 C.2     
   5 C5            -1.2864     1.8150     0.0299 C.2     
   6 C6             1.2417    -0.8608    -0.0149 C.3     
   7 C7            -1.7109     3.2609     0.0440 C.3     
   8 C8             1.1199     2.1773     0.0031 C.ar    
   9 C9            -3.5959     0.7390     0.0396 C.2     
  10 O10           -4.1901     1.7969     0.0506 O.2     
  11 C11           -4.3647    -0.5572     0.0398 C.3     
  12 S12           -6.1441    -0.2047     0.0578 S.3     
  13 C13           -6.8878    -1.8592     0.0558 C.3     
  14 C14           -8.3896    -1.7349     0.0701 C.ar    
  15 C15           -9.0894    -1.6716    -1.1207 C.ar    
  16 C16            1.9697     2.1731    -1.0978 C.ar    
  17 C17            3.0902     2.9734    -1.1079 C.ar    
  18 C18            3.3728     3.7910    -0.0100 C.ar    
  19 C19            2.5161     3.7927     1.0944 C.ar    
  20 C20            1.3949     2.9933     1.0951 C.ar    
  21 C21            4.5725     4.6495    -0.0166 C.2     
  22 O22            5.3163     4.6465    -0.9773 O.2     
  23 O23            4.8433     5.4369     1.0427 O.3     
  24 C24            6.0405     6.2550     0.9670 C.3     
  25 C25           -9.0679    -1.6899     1.2735 C.ar    
  26 C26          -10.4457    -1.5759     1.2866 C.ar    
  27 C27          -11.1447    -1.5064     0.0963 C.ar    
  28 C28          -10.4667    -1.5575    -1.1076 C.ar    
  29 C29          -11.1853    -1.5278     2.5987 C.3     
  30 H30           -1.5738    -1.4954     0.0087 H       
  31 H31            1.5508    -1.0729     1.0087 H       
  32 H32            1.0295    -1.7968    -0.5316 H       
  33 H33            2.0415    -0.3325    -0.5338 H       
  34 H34           -1.8075     3.6012     1.0750 H       
  35 H35           -0.9621     3.8644    -0.4691 H       
  36 H36           -2.6700     3.3630    -0.4636 H       
  37 H37           -4.1163    -1.1271    -0.8555 H       
  38 H38           -4.1001    -1.1365     0.9243 H       
  39 H39           -6.5762    -2.3966    -0.8399 H       
  40 H40           -6.5601    -2.4060     0.9399 H       
  41 H41           -8.5597    -1.7109    -2.0610 H       
  42 H42            1.7507     1.5412    -1.9458 H       
  43 H43            3.7501     2.9692    -1.9628 H       
  44 H44            2.7314     4.4228     1.9447 H       
  45 H45            0.7323     2.9944     1.9480 H       
  46 H46            6.9129     5.6123     0.8492 H       
  47 H47            5.9672     6.9281     0.1128 H       
  48 H48            6.1401     6.8388     1.8821 H       
  49 H49           -8.5217    -1.7442     2.2036 H       
  50 H50          -12.2210    -1.4177     0.1065 H       
  51 H51          -11.0129    -1.5033    -2.0377 H       
  52 H52          -11.2788    -0.4921     2.9254 H       
  53 H53          -12.1780    -1.9599     2.4723 H       
  54 H54          -10.6342    -2.0967     3.3475 H       
@<TRIPOS>BOND
   1    1    2 1
   2    1    8 1
   3    1    5 1
   4    2    3 2
   5    2    6 1
   6    3    4 1
   7    3   30 1
   8    4    5 2
   9    4    9 1
  10    5    7 1
  11    6   31 1
  12    6   32 1
  13    6   33 1
  14    7   34 1
  15    7   35 1
  16    7   36 1
  17    8   16 ar
  18    8   20 ar
  19    9   10 2
  20    9   11 1
  21   11   12 1
  22   11   37 1
  23   11   38 1
  24   12   13 1
  25   13   14 1
  26   13   39 1
  27   13   40 1
  28   14   15 ar
  29   14   25 ar
  30   15   28 ar
  31   15   41 1
  32   16   17 ar
  33   16   42 1
  34   17   18 ar
  35   17   43 1
  36   18   19 ar
  37   18   21 1
  38   19   20 ar
  39   19   44 1
  40   20   45 1
  41   21   22 2
  42   21   23 1
  43   23   24 1
  44   24   46 1
  45   24   47 1
  46   24   48 1
  47   25   26 ar
  48   25   49 1
  49   26   27 ar
  50   26   29 1
  51   27   28 ar
  52   27   50 1
  53   28   51 1
  54   29   52 1
  55   29   53 1
  56   29   54 1

#	End of record

