#	Name: ASD02030005
#	Creating user name:	WinNT
#	Creation time:	15. 06. 2019 20:14

#	Modifying user name:	WinNT
#	Modification time:	15. 06. 2019 20:14

#	Program:	/corina/corina34_cracker 3.40 0067  02.08.2006

@<TRIPOS>MOLECULE
ASD02030005
  56   57    0    0    0
SMALL
NO_CHARGES


@<TRIPOS>ATOM
   1 C1            -3.2347    -6.0745    -2.4564 C.ar    
   2 C2            -4.5950    -6.0961    -2.1998 C.ar    
   3 C3            -5.1522    -5.1597    -1.3473 C.ar    
   4 C4            -4.3511    -4.2036    -0.7524 C.ar    
   5 C5            -2.9926    -4.1818    -1.0090 C.ar    
   6 C6            -2.4333    -5.1202    -1.8555 C.ar    
   7 Cl7           -2.5339    -7.2487    -3.5259 Cl      
   8 C8            -4.9585    -3.1839     0.1762 C.3     
   9 C9            -4.9393    -3.7226     1.6081 C.3     
  10 N10           -5.5314    -2.7286     2.5132 N.3     
  11 C11           -5.7478    -3.2971     3.8503 C.3     
  12 C12           -6.9564    -4.2347     3.8163 C.3     
  13 C13           -7.1079    -4.9209     5.1754 C.3     
  14 O14           -8.1635    -5.8818     5.1088 O.3     
  15 C15           -8.4304    -6.5853     6.2417 C.ar    
  16 C16           -9.4424    -7.5338     6.2463 C.ar    
  17 C17           -9.7138    -8.2491     7.3961 C.ar    
  18 C18           -8.9732    -8.0184     8.5479 C.ar    
  19 C19           -7.9602    -7.0686     8.5424 C.ar    
  20 C20           -7.6867    -6.3580     7.3901 C.ar    
  21 N21           -9.2478    -8.7424     9.7135 N.am    
  22 S22          -10.0226    -8.0093    10.9803 S.o2    
  23 C23          -11.6434    -7.5443    10.3114 C.3     
  24 O24          -10.1602    -9.0388    11.9500 O.2     
  25 O25           -9.2422    -6.8520    11.2461 O.2     
  26 O26           -8.1361    -3.4810     3.5292 O.3     
  27 Cl27          -5.6010    -7.2970    -2.9478 Cl      
  28 C28           -4.7001    -1.5194     2.5835 C.3     
  29 C29           -5.5322    -0.3599     3.1349 C.3     
  30 O30           -5.8564    -0.6146     4.5031 O.3     
  31 H31           -6.2134    -5.1758    -1.1470 H       
  32 H32           -2.3674    -3.4340    -0.5439 H       
  33 H33           -1.3721    -5.1026    -2.0555 H       
  34 H34           -4.3825    -2.2598     0.1279 H       
  35 H35           -5.9876    -2.9866    -0.1240 H       
  36 H36           -5.5153    -4.6467     1.6564 H       
  37 H37           -3.9101    -3.9198     1.9082 H       
  38 H38           -4.8630    -3.8558     4.1552 H       
  39 H39           -5.9323    -2.4922     4.5618 H       
  40 H40           -6.8097    -4.9886     3.0429 H       
  41 H41           -6.1757    -5.4227     5.4350 H       
  42 H42           -7.3428    -4.1751     5.9348 H       
  43 H43          -10.0185    -7.7129     5.3505 H       
  44 H44          -10.5020    -8.9874     7.3996 H       
  45 H45           -7.3837    -6.8885     9.4377 H       
  46 H46           -6.8986    -5.6195     7.3856 H       
  47 H47           -8.9842    -9.6735     9.7796 H       
  48 H48          -12.2034    -8.4442    10.0572 H       
  49 H49          -12.1942    -6.9725    11.0583 H       
  50 H50          -11.5066    -6.9367     9.4169 H       
  51 H51           -8.2878    -2.7422     4.1344 H       
  52 H52           -3.8496    -1.7009     3.2406 H       
  53 H53           -4.3411    -1.2668     1.5858 H       
  54 H54           -4.9593     0.5647     3.0633 H       
  55 H55           -6.4506    -0.2640     2.5557 H       
  56 H56           -6.3181     0.1140     4.9402 H       
@<TRIPOS>BOND
   1    1    2 ar
   2    1    7 1
   3    1    6 ar
   4    2    3 ar
   5    2   27 1
   6    3    4 ar
   7    3   31 1
   8    4    5 ar
   9    4    8 1
  10    5    6 ar
  11    5   32 1
  12    6   33 1
  13    8    9 1
  14    8   34 1
  15    8   35 1
  16    9   10 1
  17    9   36 1
  18    9   37 1
  19   10   11 1
  20   10   28 1
  21   11   12 1
  22   11   38 1
  23   11   39 1
  24   12   13 1
  25   12   26 1
  26   12   40 1
  27   13   14 1
  28   13   41 1
  29   13   42 1
  30   14   15 1
  31   15   16 ar
  32   15   20 ar
  33   16   17 ar
  34   16   43 1
  35   17   18 ar
  36   17   44 1
  37   18   19 ar
  38   18   21 1
  39   19   20 ar
  40   19   45 1
  41   20   46 1
  42   21   22 am
  43   21   47 1
  44   22   23 1
  45   22   24 2
  46   22   25 2
  47   23   48 1
  48   23   49 1
  49   23   50 1
  50   26   51 1
  51   28   29 1
  52   28   52 1
  53   28   53 1
  54   29   30 1
  55   29   54 1
  56   29   55 1
  57   30   56 1

#	End of record

