#	Name: ASD01140120
#	Creating user name:	WinNT
#	Creation time:	15. 06. 2019 19:00

#	Modifying user name:	WinNT
#	Modification time:	15. 06. 2019 19:00

#	Program:	/corina/corina34_cracker 3.40 0067  02.08.2006

@<TRIPOS>MOLECULE
ASD01140120
  28   30    0    0    0
SMALL
NO_CHARGES


@<TRIPOS>ATOM
   1 C1            -0.0157     1.3082     0.0092 C.ar    
   2 N2             0.0021    -0.0041     0.0020 N.ar    
   3 C3             1.1360    -0.7013    -0.0125 C.ar    
   4 C4             2.3689    -0.0557    -0.0208 C.ar    
   5 C5             2.3937     1.3362    -0.0136 C.ar    
   6 C6             3.4595     2.3505    -0.0183 C.ar    
   7 C7             4.8511     2.2842    -0.0323 C.ar    
   8 C8             5.5925     3.4455    -0.0335 C.ar    
   9 C9             4.9590     4.6791    -0.0209 C.ar    
  10 C10            3.5837     4.7600    -0.0065 C.ar    
  11 C11            2.8168     3.5985    -0.0055 C.ar    
  12 N12            1.4503     3.3862     0.0064 N.pl3   
  13 C13            1.1740     2.0370     0.0018 C.ar    
  14 C14            1.0850    -2.1791    -0.0195 C.2     
  15 O15            2.1161    -2.8228    -0.0328 O.2     
  16 N16           -0.1047    -2.8124    -0.0111 N.am    
  17 C17           -0.1552    -4.2765    -0.0180 C.3     
  18 H18           -0.9615     1.8295     0.0165 H       
  19 H19            3.2878    -0.6231    -0.0323 H       
  20 H20            5.3474     1.3251    -0.0418 H       
  21 H21            6.6713     3.3949    -0.0440 H       
  22 H22            5.5487     5.5839    -0.0220 H       
  23 H23            3.1003     5.7257     0.0037 H       
  24 H24            0.7811     4.0883     0.0163 H       
  25 H25           -0.9275    -2.2988    -0.0005 H       
  26 H26            0.3371    -4.6528    -0.9147 H       
  27 H27            0.3544    -4.6618     0.8651 H       
  28 H28           -1.1947    -4.6042    -0.0095 H       
@<TRIPOS>BOND
   1    1    2 ar
   2    1   13 ar
   3    1   18 1
   4    2    3 ar
   5    3    4 ar
   6    3   14 1
   7    4    5 ar
   8    4   19 1
   9    5    6 1
  10    5   13 ar
  11    6    7 ar
  12    6   11 ar
  13    7    8 ar
  14    7   20 1
  15    8    9 ar
  16    8   21 1
  17    9   10 ar
  18    9   22 1
  19   10   11 ar
  20   10   23 1
  21   11   12 1
  22   12   13 1
  23   12   24 1
  24   14   15 2
  25   14   16 am
  26   16   17 1
  27   16   25 1
  28   17   26 1
  29   17   27 1
  30   17   28 1

#	End of record

