#	Name: ASD01911333
#	Creating user name:	WinNT
#	Creation time:	15. 06. 2019 19:57

#	Modifying user name:	WinNT
#	Modification time:	15. 06. 2019 19:57

#	Program:	/corina/corina34_cracker 3.40 0067  02.08.2006

@<TRIPOS>MOLECULE
ASD01911333
  41   43    0    0    0
SMALL
NO_CHARGES


@<TRIPOS>ATOM
   1 C1            -0.0167     1.3838     0.0097 C.ar    
   2 C2             0.0021    -0.0041     0.0020 C.ar    
   3 C3            -1.2081    -0.6844     0.0098 C.ar    
   4 C4            -2.3970     0.0389     0.0294 C.ar    
   5 N5            -2.3652     1.3671     0.0339 N.ar    
   6 C6            -1.2313     2.0391     0.0305 C.ar    
   7 O7            -1.2002    -2.0443    -0.0085 O.3     
   8 C8            -2.4315    -2.6969     0.3208 C.3     
   9 C9            -3.5602    -1.9784    -0.4297 C.3     
  10 N10           -3.6369    -0.5941     0.0508 N.3     
  11 C11            1.2720     2.1648     0.0015 C.3     
  12 O12            1.6665     2.4189    -1.3482 O.3     
  13 C13            2.8837     3.1578    -1.4687 C.3     
  14 C14            3.5957     2.7603    -2.7633 C.3     
  15 C15            4.8989     3.5514    -2.8923 C.3     
  16 C16            4.5858     5.0487    -2.9216 C.3     
  17 C17            3.8739     5.4463    -1.6270 C.3     
  18 C18            2.5706     4.6551    -1.4980 C.3     
  19 C19           -4.6326     0.1727    -0.7098 C.3     
  20 H20            0.9379    -0.5430    -0.0101 H       
  21 H21           -1.2529     3.1188     0.0346 H       
  22 H22           -2.3895    -3.7414     0.0119 H       
  23 H23           -2.6055    -2.6359     1.3951 H       
  24 H24           -3.3493    -1.9832    -1.4991 H       
  25 H25           -4.5065    -2.4847    -0.2389 H       
  26 H26            1.1265     3.1115     0.5219 H       
  27 H27            2.0489     1.5892     0.5049 H       
  28 H28            3.5281     2.9379    -0.6175 H       
  29 H29            3.8187     1.6935    -2.7425 H       
  30 H30            2.9513     2.9802    -3.6146 H       
  31 H31            5.5432     3.3315    -2.0411 H       
  32 H32            5.4061     3.2682    -3.8147 H       
  33 H33            5.5142     5.6123    -3.0135 H       
  34 H34            3.9415     5.2686    -3.7728 H       
  35 H35            4.5182     5.2264    -0.7757 H       
  36 H36            3.6508     6.5130    -1.6478 H       
  37 H37            1.9263     4.8751    -2.3492 H       
  38 H38            2.0635     4.9384    -0.5756 H       
  39 H39           -5.6124    -0.2913    -0.5966 H       
  40 H40           -4.6690     1.1950    -0.3332 H       
  41 H41           -4.3553     0.1835    -1.7638 H       
@<TRIPOS>BOND
   1    1    2 ar
   2    1   11 1
   3    1    6 ar
   4    2    3 ar
   5    2   20 1
   6    3    4 ar
   7    3    7 1
   8    4    5 ar
   9    4   10 1
  10    5    6 ar
  11    6   21 1
  12    7    8 1
  13    8    9 1
  14    8   22 1
  15    8   23 1
  16    9   10 1
  17    9   24 1
  18    9   25 1
  19   10   19 1
  20   11   12 1
  21   11   26 1
  22   11   27 1
  23   12   13 1
  24   13   14 1
  25   13   18 1
  26   13   28 1
  27   14   15 1
  28   14   29 1
  29   14   30 1
  30   15   16 1
  31   15   31 1
  32   15   32 1
  33   16   17 1
  34   16   33 1
  35   16   34 1
  36   17   18 1
  37   17   35 1
  38   17   36 1
  39   18   37 1
  40   18   38 1
  41   19   39 1
  42   19   40 1
  43   19   41 1

#	End of record

