#	Name: ASD03740269
#	Creating user name:	WinNT
#	Creation time:	15. 06. 2019 20:47

#	Modifying user name:	WinNT
#	Modification time:	15. 06. 2019 20:47

#	Program:	/corina/corina34_cracker 3.40 0067  02.08.2006

@<TRIPOS>MOLECULE
ASD03740269
  65   70    0    0    0
SMALL
NO_CHARGES


@<TRIPOS>ATOM
   1 C1            -0.0178     1.4608     0.0101 C.3     
   2 N2             0.0021    -0.0041     0.0020 N.am    
   3 C3            -1.1558    -0.6938     0.0094 C.2     
   4 O4            -2.2179    -0.0997     0.0227 O.2     
   5 C5            -1.1359    -2.1607     0.0013 C.2     
   6 C6            -1.1346    -2.9932    -1.1057 C.2     
   7 O7            -1.1130    -4.2732    -0.6990 O.3     
   8 C8            -1.0993    -4.3627     0.6477 C.ar    
   9 C9            -1.0762    -5.4440     1.5185 C.ar    
  10 C10           -1.0665    -5.2301     2.8873 C.ar    
  11 N11           -1.0433    -6.3216     3.7594 N.am    
  12 C12            0.2328    -6.9453     4.1185 C.3     
  13 C13            0.8516    -6.1960     5.2703 C.ar    
  14 C14            0.5639    -6.5744     6.5708 C.ar    
  15 C15            1.1261    -5.8945     7.6304 C.ar    
  16 C16            1.0109    -6.0635     9.1216 C.3     
  17 O17            1.8133    -5.0797     9.7724 O.3     
  18 O18            3.3271    -3.1891     9.0178 O.3     
  19 C19            1.9863    -4.8235     7.3855 C.ar    
  20 C20            2.2740    -4.4438     6.0759 C.ar    
  21 C21            1.7072    -5.1390     5.0216 C.ar    
  22 S22           -2.4581    -6.9103     4.3870 S.o2    
  23 C23           -2.9954    -8.1656     3.1928 C.3     
  24 O24           -2.0717    -7.5196     5.6112 O.2     
  25 O25           -3.3396    -5.7958     4.3696 O.2     
  26 C26           -1.0793    -3.9354     3.4008 C.ar    
  27 C27           -1.1027    -2.8540     2.5479 C.ar    
  28 C28           -1.1066    -3.0603     1.1710 C.ar    
  29 C29           -1.0680    -3.7175     4.8919 C.3     
  30 C30            0.1023    -2.9278     5.4816 C.3     
  31 C31           -1.2862    -2.2905     5.3989 C.3     
  32 C32           -1.1539    -2.5448    -2.5101 C.ar    
  33 C33           -1.1504    -3.4828    -3.5463 C.ar    
  34 C34           -1.1690    -3.0574    -4.8573 C.ar    
  35 C35           -1.1906    -1.7021    -5.1490 C.ar    
  36 C36           -1.1941    -0.7669    -4.1255 C.ar    
  37 C37           -1.1815    -1.1800    -2.8106 C.ar    
  38 B38            2.4459    -4.2779     8.7843 Du      
  39 F39            3.1066    -3.4071     5.8365 F       
  40 F40           -1.2078    -1.2912    -6.4359 F       
  41 H41            1.0048     1.8381     0.0023 H       
  42 H42           -0.5450     1.8219    -0.8730 H       
  43 H43           -0.5280     1.8123     0.9069 H       
  44 H44            0.8486    -0.4776    -0.0086 H       
  45 H45           -1.0662    -6.4513     1.1290 H       
  46 H46            0.0616    -7.9817     4.4093 H       
  47 H47            0.9059    -6.9148     3.2617 H       
  48 H48           -0.1027    -7.4038     6.7556 H       
  49 H49           -0.0297    -5.9414     9.4223 H       
  50 H50            1.3558    -7.0585     9.4028 H       
  51 H51            3.4871    -3.0064     9.9538 H       
  52 H52            1.9297    -4.8526     4.0043 H       
  53 H53           -2.3082    -9.0112     3.2206 H       
  54 H54           -3.9992    -8.5046     3.4489 H       
  55 H55           -3.0017    -7.7352     2.1914 H       
  56 H56           -1.1133    -1.8499     2.9457 H       
  57 H57           -1.4772    -4.5322     5.4892 H       
  58 H58            0.4628    -3.2229     6.4670 H       
  59 H59            0.8641    -2.5660     4.7910 H       
  60 H60           -1.4378    -1.5094     4.6540 H       
  61 H61           -1.8391    -2.1662     6.3300 H       
  62 H62           -1.1329    -4.5387    -3.3203 H       
  63 H63           -1.1663    -3.7812    -5.6588 H       
  64 H64           -1.2109     0.2874    -4.3590 H       
  65 H65           -1.1888    -0.4506    -2.0141 H       
@<TRIPOS>BOND
   1    1    2 1
   2    1   41 1
   3    1   42 1
   4    1   43 1
   5    2    3 am
   6    2   44 1
   7    3    4 2
   8    3    5 1
   9    5    6 2
  10    5   28 1
  11    6    7 1
  12    6   32 1
  13    7    8 1
  14    8    9 ar
  15    8   28 ar
  16    9   10 ar
  17    9   45 1
  18   10   11 1
  19   10   26 ar
  20   11   12 1
  21   11   22 am
  22   12   13 1
  23   12   46 1
  24   12   47 1
  25   13   14 ar
  26   13   21 ar
  27   14   15 ar
  28   14   48 1
  29   15   16 1
  30   15   19 ar
  31   16   17 1
  32   16   49 1
  33   16   50 1
  34   17   38 1
  35   18   38 1
  36   18   51 1
  37   19   20 ar
  38   19   38 1
  39   20   21 ar
  40   20   39 1
  41   21   52 1
  42   22   23 1
  43   22   24 2
  44   22   25 2
  45   23   53 1
  46   23   54 1
  47   23   55 1
  48   26   27 ar
  49   26   29 1
  50   27   28 ar
  51   27   56 1
  52   29   30 1
  53   29   31 1
  54   29   57 1
  55   30   31 1
  56   30   58 1
  57   30   59 1
  58   31   60 1
  59   31   61 1
  60   32   33 ar
  61   32   37 ar
  62   33   34 ar
  63   33   62 1
  64   34   35 ar
  65   34   63 1
  66   35   36 ar
  67   35   40 1
  68   36   37 ar
  69   36   64 1
  70   37   65 1

#	End of record

