#	Name: ASD03090247
#	Creating user name:	WinNT
#	Creation time:	15. 06. 2019 20:28

#	Modifying user name:	WinNT
#	Modification time:	15. 06. 2019 20:28

#	Program:	/corina/corina34_cracker 3.40 0067  02.08.2006

@<TRIPOS>MOLECULE
ASD03090247
  49   52    0    0    0
SMALL
NO_CHARGES


@<TRIPOS>ATOM
   1 N1             0.2130     1.2949     1.8475 N.ar    
   2 C2             0.2236    -0.0050     1.6227 C.ar    
   3 C3             1.3540    -0.6312     1.1395 C.ar    
   4 C4             2.4984     0.1337     0.8883 C.ar    
   5 C5             2.4421     1.5084     1.1410 C.ar    
   6 C6             1.2695     2.0524     1.6244 C.ar    
   7 C7             3.7343    -0.4943     0.3701 C.2     
   8 N8             5.5503    -3.0833    -1.1640 N.pl3   
   9 C9             4.6527    -4.1021    -1.5001 C.ar    
  10 C10            3.3435    -3.7905    -1.8426 C.ar    
  11 C11            2.4589    -4.7983    -2.1741 C.ar    
  12 C12            2.8765    -6.1183    -2.1646 C.ar    
  13 C13            4.1817    -6.4314    -1.8233 C.ar    
  14 C14            5.0712    -5.4267    -1.4972 C.ar    
  15 N15            3.8221    -1.6811    -0.1961 N.2     
  16 C16            5.0874    -1.9225    -0.5414 C.2     
  17 N17            5.8282    -0.8926    -0.2008 N.2     
  18 N18            4.9711     0.0506     0.3888 N.pl3   
  19 C19            5.3446     1.3618     0.9250 C.3     
  20 C20            6.8686     1.4978     0.9242 C.3     
  21 F21            2.0094    -7.1024    -2.4883 F       
  22 C22            7.2612     2.8394     1.5463 C.3     
  23 O23            7.3516     1.4361    -0.4192 O.3     
  24 C24           -1.0157    -0.8171     1.8980 C.3     
  25 C25           -1.9628    -1.0801     0.7256 C.3     
  26 C26           -1.0971    -2.2138     1.2788 C.3     
  27 C27            4.6332    -7.8691    -1.8134 C.3     
  28 F28            5.9800    -7.9325    -1.4402 F       
  29 F29            3.8613    -8.5940    -0.8991 F       
  30 F30            4.4773    -8.4156    -3.0918 F       
  31 H31            1.3556    -1.6958     0.9581 H       
  32 H32            3.3034     2.1345     0.9609 H       
  33 H33            1.2161     3.1128     1.8222 H       
  34 H34            6.4942    -3.1832    -1.3635 H       
  35 H35            3.0171    -2.7610    -1.8494 H       
  36 H36            1.4406    -4.5564    -2.4405 H       
  37 H37            6.0891    -5.6713    -1.2315 H       
  38 H38            4.9096     2.1454     0.3046 H       
  39 H39            4.9719     1.4569     1.9449 H       
  40 H40            7.3061     0.6860     1.5053 H       
  41 H41            6.8927     2.8864     2.5710 H       
  42 H42            8.3469     2.9362     1.5457 H       
  43 H43            6.8237     3.6512     0.9652 H       
  44 H44            6.9470     2.0834    -1.0128 H       
  45 H45           -1.4610    -0.6760     2.8829 H       
  46 H46           -3.0312    -1.1125     0.9392 H       
  47 H47           -1.6896    -0.6658    -0.2449 H       
  48 H48           -0.2543    -2.5453     0.6724 H       
  49 H49           -1.5959    -2.9921     1.8564 H       
@<TRIPOS>BOND
   1    1    2 ar
   2    1    6 ar
   3    2    3 ar
   4    2   24 1
   5    3    4 ar
   6    3   31 1
   7    4    5 ar
   8    4    7 1
   9    5    6 ar
  10    5   32 1
  11    6   33 1
  12    7   15 2
  13    7   18 1
  14    8    9 1
  15    8   16 1
  16    8   34 1
  17    9   10 ar
  18    9   14 ar
  19   10   11 ar
  20   10   35 1
  21   11   12 ar
  22   11   36 1
  23   12   13 ar
  24   12   21 1
  25   13   14 ar
  26   13   27 1
  27   14   37 1
  28   15   16 1
  29   16   17 2
  30   17   18 1
  31   18   19 1
  32   19   20 1
  33   19   38 1
  34   19   39 1
  35   20   22 1
  36   20   23 1
  37   20   40 1
  38   22   41 1
  39   22   42 1
  40   22   43 1
  41   23   44 1
  42   24   25 1
  43   24   26 1
  44   24   45 1
  45   25   26 1
  46   25   46 1
  47   25   47 1
  48   26   48 1
  49   26   49 1
  50   27   28 1
  51   27   29 1
  52   27   30 1

#	End of record

