#	Name: ASD08070267
#	Creating user name:	WinNT
#	Creation time:	15. 06. 2019 21:14

#	Modifying user name:	WinNT
#	Modification time:	15. 06. 2019 21:14

#	Program:	/corina/corina34_cracker 3.40 0067  02.08.2006

@<TRIPOS>MOLECULE
ASD08070267
  41   43    0    0    0
SMALL
NO_CHARGES


@<TRIPOS>ATOM
   1 O1            -0.0174     1.4354     0.0099 O.3     
   2 C2             0.0021    -0.0041     0.0020 C.3     
   3 O3             1.2438    -0.3266    -0.6516 O.3     
   4 C4             2.0691     0.7335    -0.4081 C.ar    
   5 C5             1.2912     1.8185    -0.0005 C.ar    
   6 C6             3.4405     0.8644    -0.5021 C.ar    
   7 C7             4.0472     2.0838    -0.1884 C.ar    
   8 C8             3.2633     3.1655     0.2189 C.ar    
   9 C9             1.8951     3.0290     0.3108 C.ar    
  10 C10            5.5130     2.2278    -0.2870 C.2     
  11 O11            6.1940     1.2850    -0.6414 O.2     
  12 N12            6.0963     3.4045     0.0159 N.am    
  13 C13            7.5510     3.5474    -0.0820 C.3     
  14 C14            7.9514     4.9701     0.3139 C.3     
  15 C15            9.4478     5.1172     0.2133 C.ar    
  16 C16           10.0232     5.5331    -0.9728 C.ar    
  17 C17           11.3959     5.6679    -1.0652 C.ar    
  18 C18           12.1931     5.3874     0.0287 C.ar    
  19 C19           11.6176     4.9724     1.2151 C.ar    
  20 C20           10.2446     4.8417     1.3087 C.ar    
  21 C21           13.6896     5.5335    -0.0722 C.3     
  22 C22           14.0909     6.9562     0.3225 C.3     
  23 H23           -0.0068    -0.3927     1.0203 H       
  24 H24           -0.8422    -0.3953    -0.5656 H       
  25 H25            4.0435     0.0256    -0.8171 H       
  26 H26            3.7294     4.1089     0.4620 H       
  27 H27            1.2906     3.8668     0.6257 H       
  28 H28            5.5530     4.1566     0.2986 H       
  29 H29            8.0320     2.8349     0.5881 H       
  30 H30            7.8671     3.3529    -1.1068 H       
  31 H31            7.4704     5.6827    -0.3562 H       
  32 H32            7.6353     5.1646     1.3388 H       
  33 H33            9.4004     5.7522    -1.8275 H       
  34 H34           11.8455     5.9922    -1.9921 H       
  35 H35           12.2405     4.7529     2.0697 H       
  36 H36            9.7947     4.5210     2.2367 H       
  37 H37           14.1703     4.8212     0.5984 H       
  38 H38           14.0054     5.3379    -1.0969 H       
  39 H39           13.6102     7.6685    -0.3481 H       
  40 H40           13.7751     7.1518     1.3472 H       
  41 H41           15.1733     7.0619     0.2494 H       
@<TRIPOS>BOND
   1    1    2 1
   2    1    5 1
   3    2    3 1
   4    2   23 1
   5    2   24 1
   6    3    4 1
   7    4    5 ar
   8    4    6 ar
   9    5    9 ar
  10    6    7 ar
  11    6   25 1
  12    7    8 ar
  13    7   10 1
  14    8    9 ar
  15    8   26 1
  16    9   27 1
  17   10   11 2
  18   10   12 am
  19   12   13 1
  20   12   28 1
  21   13   14 1
  22   13   29 1
  23   13   30 1
  24   14   15 1
  25   14   31 1
  26   14   32 1
  27   15   16 ar
  28   15   20 ar
  29   16   17 ar
  30   16   33 1
  31   17   18 ar
  32   17   34 1
  33   18   19 ar
  34   18   21 1
  35   19   20 ar
  36   19   35 1
  37   20   36 1
  38   21   22 1
  39   21   37 1
  40   21   38 1
  41   22   39 1
  42   22   40 1
  43   22   41 1

#	End of record

