#	Name: ASD00960164
#	Creating user name:	WinNT
#	Creation time:	15. 06. 2019 18:53

#	Modifying user name:	WinNT
#	Modification time:	15. 06. 2019 18:53

#	Program:	/corina/corina34_cracker 3.40 0067  02.08.2006

@<TRIPOS>MOLECULE
ASD00960164
  36   38    0    0    0
SMALL
NO_CHARGES


@<TRIPOS>ATOM
   1 O1            -0.0173     1.4248     0.0099 O.3     
   2 O2            -2.3899     0.5001     0.0276 O.3     
   3 C3             0.0021    -0.0041     0.0020 C.3     
   4 C4            -1.4375    -0.5651     0.0127 C.3     
   5 C5            -1.5390    -1.3636    -1.3057 C.3     
   6 O6            -0.1754    -1.7075    -1.6348 O.3     
   7 C7             0.6000    -0.5300    -1.3217 C.3     
   8 C8             2.0731    -0.8974    -1.1319 C.3     
   9 C9            -2.3600    -2.6108    -1.1018 C.2     
  10 C10           -1.9426    -3.7356    -0.4597 C.2     
  11 N11           -3.6329    -2.7911    -1.5224 N.pl3   
  12 C12           -4.0420    -4.0569    -1.1492 C.2     
  13 C13           -2.9913    -4.6578    -0.4828 C.2     
  14 N14           -4.5382    -1.9772    -2.2175 N.2     
  15 C15           -5.7332    -2.4200    -2.4968 C.2     
  16 N16           -6.1415    -3.6376    -2.1435 N.2     
  17 C17           -5.3513    -4.4700    -1.4859 C.2     
  18 O18            2.6177    -1.3406    -2.3765 O.3     
  19 N19           -5.8001    -5.7269    -1.1323 N.pl3   
  20 F20           -0.7282    -3.9268     0.1004 F       
  21 C21           -1.6454    -1.4851     1.2175 C.3     
  22 H22            0.8606     1.8301     0.0037 H       
  23 H23           -2.3300     1.0705     0.8061 H       
  24 H24            0.5657    -0.3821     0.8550 H       
  25 H25           -1.9746    -0.7458    -2.0910 H       
  26 H26            0.4925     0.2157    -2.1094 H       
  27 H27            2.6238    -0.0230    -0.7851 H       
  28 H28            2.1564    -1.6954    -0.3941 H       
  29 H29           -2.9824    -5.6518    -0.0606 H       
  30 H30           -6.4154    -1.7767    -3.0328 H       
  31 H31            3.5507    -1.5906    -2.3308 H       
  32 H32           -6.6997    -6.0042    -1.3660 H       
  33 H33           -5.2157    -6.3327    -0.6501 H       
  34 H34           -1.5027    -0.9174     2.1370 H       
  35 H35           -2.6567    -1.8911     1.1943 H       
  36 H36           -0.9249    -2.3021     1.1793 H       
@<TRIPOS>BOND
   1    1    3 1
   2    1   22 1
   3    2    4 1
   4    2   23 1
   5    3    4 1
   6    3    7 1
   7    3   24 1
   8    4   21 1
   9    4    5 1
  10    5    6 1
  11    5    9 1
  12    5   25 1
  13    6    7 1
  14    7    8 1
  15    7   26 1
  16    8   18 1
  17    8   27 1
  18    8   28 1
  19    9   10 2
  20    9   11 1
  21   10   20 1
  22   10   13 1
  23   11   12 1
  24   11   14 1
  25   12   13 2
  26   12   17 1
  27   13   29 1
  28   14   15 2
  29   15   16 1
  30   15   30 1
  31   16   17 2
  32   17   19 1
  33   18   31 1
  34   19   32 1
  35   19   33 1
  36   21   34 1
  37   21   35 1
  38   21   36 1

#	End of record

