#	Name: ASD07301105
#	Creating user name:	WinNT
#	Creation time:	15. 06. 2019 21:10

#	Modifying user name:	WinNT
#	Modification time:	15. 06. 2019 21:10

#	Program:	/corina/corina34_cracker 3.40 0067  02.08.2006

@<TRIPOS>MOLECULE
ASD07301105
  27   28    0    0    0
SMALL
NO_CHARGES


@<TRIPOS>ATOM
   1 N1            -0.0179     1.4659     0.0101 N.3     
   2 C2             0.0021    -0.0041     0.0020 C.3     
   3 C3             0.7497    -0.4921    -1.2417 C.3     
   4 O4             2.0659     0.0673    -1.2506 O.3     
   5 C5             2.0838     1.4973    -1.2437 C.3     
   6 C6             1.3496     2.0055    -0.0001 C.3     
   7 C7            -0.7400     1.9513     1.1049 C.ar    
   8 C8            -0.1176     2.7660     2.0441 C.ar    
   9 C9            -0.8364     3.2443     3.1264 C.ar    
  10 C10           -2.1729     2.9106     3.2723 C.ar    
  11 C11           -2.7918     2.1004     2.3390 C.ar    
  12 C12           -2.0813     1.6253     1.2531 C.ar    
  13 N13           -2.9398     3.4224     4.4303 N.pl3   
  14 O14           -4.1150     3.1298     4.5598 O.2     
  15 O15           -2.3956     4.1362     5.2537 O.2     
  16 F16           -0.2342     4.0361     4.0405 F       
  17 F17            1.1862     3.0900     1.9011 F       
  18 H18            0.5087    -0.3661     0.8967 H       
  19 H19           -1.0202    -0.3818    -0.0162 H       
  20 H20            0.8167    -1.5799    -1.2226 H       
  21 H21            0.2136    -0.1754    -2.1363 H       
  22 H22            3.1155     1.8483    -1.2262 H       
  23 H23            1.5864     1.8718    -2.1384 H       
  24 H24            1.3110     3.0946    -0.0198 H       
  25 H25            1.8778     1.6756     0.8946 H       
  26 H26           -3.8338     1.8420     2.4561 H       
  27 H27           -2.5683     0.9966     0.5223 H       
@<TRIPOS>BOND
   1    1    2 1
   2    1    6 1
   3    1    7 1
   4    2    3 1
   5    2   18 1
   6    2   19 1
   7    3    4 1
   8    3   20 1
   9    3   21 1
  10    4    5 1
  11    5    6 1
  12    5   22 1
  13    5   23 1
  14    6   24 1
  15    6   25 1
  16    7    8 ar
  17    7   12 ar
  18    8    9 ar
  19    8   17 1
  20    9   10 ar
  21    9   16 1
  22   10   11 ar
  23   10   13 1
  24   11   12 ar
  25   11   26 1
  26   12   27 1
  27   13   14 2
  28   13   15 2

#	End of record

