#	Name: ASD01200246
#	Creating user name:	WinNT
#	Creation time:	15. 06. 2019 19:08

#	Modifying user name:	WinNT
#	Modification time:	15. 06. 2019 19:08

#	Program:	/corina/corina34_cracker 3.40 0067  02.08.2006

@<TRIPOS>MOLECULE
ASD01200246
  46   48    0    0    0
SMALL
NO_CHARGES


@<TRIPOS>ATOM
   1 C1             0.2730     0.8376     0.0939 C.ar    
   2 C2             0.5139    -0.5234     0.0700 C.ar    
   3 C3             1.8121    -0.9946     0.0126 C.ar    
   4 C4             2.8696    -0.1049    -0.0213 C.ar    
   5 C5             2.6287     1.2561     0.0017 C.ar    
   6 C6             1.3305     1.7274     0.0605 C.ar    
   7 C7             3.7815     2.2260    -0.0347 C.3     
   8 C8             3.6581     3.1185    -1.2713 C.3     
   9 C9             3.7581     3.0809     1.2061 C.2     
  10 C10            3.8263     2.2687    -2.5324 C.3     
  11 N11            4.7813     3.9186     1.4667 N.am    
  12 O12            2.8186     3.0150     1.9703 O.2     
  13 C13            3.5725     3.1270    -3.7841 C.3     
  14 C14            4.8790     3.1075    -4.6041 C.3     
  15 C15            5.5923     1.8093    -4.1513 C.3     
  16 C16            5.2782     1.7576    -2.6355 C.3     
  17 C17            4.8064     4.6359     2.6571 C.2     
  18 S18            6.0379     5.7295     3.1156 S.3     
  19 C19            5.1970     6.0586     4.6283 C.2     
  20 C20            4.0821     5.3257     4.6498 C.2     
  21 N21            3.8967     4.5771     3.5786 N.2     
  22 S22           -0.8340    -1.6574     0.1132 S.o     
  23 C23           -1.2181    -1.9018    -1.6427 C.3     
  24 O24           -0.2417    -2.8381     0.6372 O.2     
  25 H25           -0.7414     1.2059     0.1342 H       
  26 H26            2.0003    -2.0580    -0.0054 H       
  27 H27            3.8839    -0.4731    -0.0654 H       
  28 H28            1.1423     2.7907     0.0782 H       
  29 H29            4.7200     1.6734    -0.0776 H       
  30 H30            2.6767     3.5926    -1.2808 H       
  31 H31            4.4319     3.8857    -1.2443 H       
  32 H32            3.1341     1.4271    -2.5102 H       
  33 H33            5.5001     4.0211     0.8235 H       
  34 H34            2.7577     2.7014    -4.3698 H       
  35 H35            3.3296     4.1490    -3.4931 H       
  36 H36            4.6593     3.0698    -5.6711 H       
  37 H37            5.4894     3.9797    -4.3700 H       
  38 H38            5.1755     0.9413    -4.6621 H       
  39 H39            6.6668     1.8797    -4.3209 H       
  40 H40            5.9530     2.4118    -2.0835 H       
  41 H41            5.3496     0.7347    -2.2658 H       
  42 H42            5.5263     6.7352     5.4030 H       
  43 H43            3.3857     5.3464     5.4751 H       
  44 H44           -0.3447    -2.3083    -2.1526 H       
  45 H45           -2.0516    -2.5976    -1.7389 H       
  46 H46           -1.4889    -0.9462    -2.0918 H       
@<TRIPOS>BOND
   1    1    2 ar
   2    1    6 ar
   3    1   25 1
   4    2    3 ar
   5    2   22 1
   6    3    4 ar
   7    3   26 1
   8    4    5 ar
   9    4   27 1
  10    5    6 ar
  11    5    7 1
  12    6   28 1
  13    7    8 1
  14    7    9 1
  15    7   29 1
  16    8   10 1
  17    8   30 1
  18    8   31 1
  19    9   11 am
  20    9   12 2
  21   10   13 1
  22   10   16 1
  23   10   32 1
  24   11   17 1
  25   11   33 1
  26   13   14 1
  27   13   34 1
  28   13   35 1
  29   14   15 1
  30   14   36 1
  31   14   37 1
  32   15   16 1
  33   15   38 1
  34   15   39 1
  35   16   40 1
  36   16   41 1
  37   17   18 1
  38   17   21 2
  39   18   19 1
  40   19   20 2
  41   19   42 1
  42   20   21 1
  43   20   43 1
  44   22   23 1
  45   22   24 2
  46   23   44 1
  47   23   45 1
  48   23   46 1

#	End of record

