#	Name: ASD03451019
#	Creating user name:	WinNT
#	Creation time:	15. 06. 2019 20:42

#	Modifying user name:	WinNT
#	Modification time:	15. 06. 2019 20:42

#	Program:	/corina/corina34_cracker 3.40 0067  02.08.2006

@<TRIPOS>MOLECULE
ASD03451019
  43   46    0    0    0
SMALL
NO_CHARGES


@<TRIPOS>ATOM
   1 C1            -0.0971     1.4628     0.3251 C.ar    
   2 C2            -0.0735     0.0802     0.2654 C.ar    
   3 C3             1.1383    -0.5698     0.1305 C.ar    
   4 C4             2.3142     0.1960     0.0576 C.ar    
   5 C5             2.2140     1.5936     0.1195 C.ar    
   6 N6             1.0113     2.1647     0.2533 N.ar    
   7 C7             3.5876    -0.5136    -0.0755 C.2     
   8 N8             4.6657    -0.1794     0.5288 N.2     
   9 C9             4.7141     0.9820     1.4168 C.3     
  10 C10            4.4243     2.2193     0.6134 C.2     
  11 N11            3.2869     2.4191     0.0455 N.2     
  12 C12            3.6324    -1.7161    -0.9827 C.3     
  13 C13            3.6799     0.8310     2.5025 C.2     
  14 S14            2.7774     2.1517     3.2338 S.3     
  15 C15            1.9210     1.0268     4.2800 C.2     
  16 C16            2.3377    -0.2166     4.0362 C.2     
  17 C17            3.3048    -0.3252     3.0518 C.2     
  18 C18            3.3872    -1.2866    -2.4398 C.3     
  19 C19            4.6496    -1.6812    -3.2338 C.3     
  20 C20            5.2826    -2.8217    -2.3987 C.3     
  21 C21            5.0352    -2.3567    -0.9421 C.3     
  22 N22            5.4002     3.1622     0.4820 N.pl3   
  23 C23            5.1447     4.3774    -0.2953 C.3     
  24 H24           -1.0430     1.9737     0.4280 H       
  25 H25           -0.9923    -0.4844     0.3240 H       
  26 H26            1.1811    -1.6478     0.0822 H       
  27 H27            5.7058     1.0599     1.8626 H       
  28 H28            2.8802    -2.4430    -0.6761 H       
  29 H29            1.1724     1.3009     5.0087 H       
  30 H30            1.9473    -1.0742     4.5641 H       
  31 H31            3.7285    -1.2735     2.7557 H       
  32 H32            2.5166    -1.8057    -2.8406 H       
  33 H33            3.2359    -0.2084    -2.4908 H       
  34 H34            4.3790    -2.0404    -4.2267 H       
  35 H35            5.3343    -0.8362    -3.3063 H       
  36 H36            4.7784    -3.7684    -2.5929 H       
  37 H37            6.3504    -2.9027    -2.6022 H       
  38 H38            5.7822    -1.6208    -0.6445 H       
  39 H39            5.0460    -3.2089    -0.2626 H       
  40 H40            6.2637     3.0284     0.9031 H       
  41 H41            6.0343     5.0073    -0.2877 H       
  42 H42            4.8999     4.1069    -1.3225 H       
  43 H43            4.3100     4.9221     0.1458 H       
@<TRIPOS>BOND
   1    1    2 ar
   2    1    6 ar
   3    1   24 1
   4    2    3 ar
   5    2   25 1
   6    3    4 ar
   7    3   26 1
   8    4    5 ar
   9    4    7 1
  10    5    6 ar
  11    5   11 1
  12    7    8 2
  13    7   12 1
  14    8    9 1
  15    9   10 1
  16    9   13 1
  17    9   27 1
  18   10   11 2
  19   10   22 1
  20   12   18 1
  21   12   21 1
  22   12   28 1
  23   13   14 1
  24   13   17 2
  25   14   15 1
  26   15   16 2
  27   15   29 1
  28   16   17 1
  29   16   30 1
  30   17   31 1
  31   18   19 1
  32   18   32 1
  33   18   33 1
  34   19   20 1
  35   19   34 1
  36   19   35 1
  37   20   21 1
  38   20   36 1
  39   20   37 1
  40   21   38 1
  41   21   39 1
  42   22   23 1
  43   22   40 1
  44   23   41 1
  45   23   42 1
  46   23   43 1

#	End of record

