#	Name: ASD01850082
#	Creating user name:	WinNT
#	Creation time:	15. 06. 2019 19:38

#	Modifying user name:	WinNT
#	Modification time:	15. 06. 2019 19:38

#	Program:	/corina/corina34_cracker 3.40 0067  02.08.2006

@<TRIPOS>MOLECULE
ASD01850082
  65   68    0    0    0
SMALL
NO_CHARGES


@<TRIPOS>ATOM
   1 C1             4.6037    -2.2832    -0.3397 C.ar    
   2 C2             3.3882    -2.4381     0.2997 C.ar    
   3 C3             2.7053    -1.3293     0.7641 C.ar    
   4 C4             3.2382    -0.0661     0.5893 C.ar    
   5 C5             4.4545     0.0887    -0.0495 C.ar    
   6 C6             5.1366    -1.0196    -0.5150 C.ar    
   7 C7             5.1840     2.6103     2.0190 C.3     
   8 N8             4.4729     2.3765     0.7597 N.am    
   9 C9             3.3014     2.9989     0.5218 C.2     
  10 C10            2.7725     4.0111     1.5051 C.3     
  11 O11            2.6727     2.7445    -0.4837 O.2     
  12 C12            1.6111     4.7798     0.8707 C.3     
  13 C13            2.2830     3.2914     2.7639 C.3     
  14 C14            1.7783     4.3258     3.7749 C.3     
  15 N15            0.7618     5.1647     3.1256 N.am    
  16 C16            1.0988     5.8310     1.8602 C.3     
  17 C17           -0.6483     6.7535     4.8755 C.ar    
  18 C18           -0.9334     7.9957     4.3878 C.ar    
  19 C19           -0.8642     9.1055     5.2376 C.ar    
  20 C20           -0.5012     8.9284     6.5866 C.ar    
  21 C21           -0.2162     7.6483     7.0559 C.ar    
  22 C22           -0.2954     6.5801     6.2084 C.ar    
  23 C23           -1.0957    10.5352     5.0595 C.2     
  24 N24           -0.8833    11.1182     6.2046 N.2     
  25 N25           -0.5174    10.1702     7.1658 N.pl3   
  26 C26            5.0351     1.4662    -0.2410 C.3     
  27 C27            5.4628     1.2707     2.7036 C.3     
  28 C28            4.1489     0.6753     3.2134 C.3     
  29 C29            6.5078     3.3220     1.7326 C.3     
  30 S30           -0.7356     5.3553     3.8068 S.o2    
  31 O31           -1.6149     5.7127     2.7494 O.2     
  32 O32           -0.9434     4.2244     4.6418 O.2     
  33 C33            6.4621    -0.8508    -1.2118 C.3     
  34 F34            6.9842    -2.1086    -1.5319 F       
  35 F35            6.2817    -0.1087    -2.3839 F       
  36 F36            7.3511    -0.1783    -0.3664 F       
  37 H37            5.1394    -3.1497    -0.6985 H       
  38 H38            2.9718    -3.4251     0.4363 H       
  39 H39            1.7551    -1.4502     1.2632 H       
  40 H40            2.7044     0.8001     0.9515 H       
  41 H41            4.5714     3.2317     2.6723 H       
  42 H42            3.5670     4.7082     1.7713 H       
  43 H43            1.9548     5.2730    -0.0385 H       
  44 H44            0.8060     4.0866     0.6270 H       
  45 H45            1.4716     2.6123     2.5024 H       
  46 H46            3.1050     2.7254     3.2022 H       
  47 H47            1.3380     3.8151     4.6313 H       
  48 H48            2.6091     4.9488     4.1060 H       
  49 H49            1.8742     6.5768     2.0352 H       
  50 H50            0.2101     6.3134     1.4533 H       
  51 H51           -1.2105     8.1218     3.3516 H       
  52 H52            0.0636     7.5003     8.0885 H       
  53 H53           -0.0739     5.5894     6.5769 H       
  54 H54           -1.3905    11.0228     4.1420 H       
  55 H55           -0.3089    10.3612     8.0937 H       
  56 H56            6.1181     1.4232    -0.1253 H       
  57 H57            4.7904     1.8280    -1.2396 H       
  58 H58            5.9192     0.5856     1.9891 H       
  59 H59            6.1412     1.4257     3.5425 H       
  60 H60            4.3109    -0.3605     3.5117 H       
  61 H61            3.7982     1.2497     4.0708 H       
  62 H62            3.4015     0.7125     2.4208 H       
  63 H63            6.3092     4.2763     1.2449 H       
  64 H64            7.0370     3.4959     2.6695 H       
  65 H65            7.1204     2.7006     1.0793 H       
@<TRIPOS>BOND
   1    1    2 ar
   2    1    6 ar
   3    1   37 1
   4    2    3 ar
   5    2   38 1
   6    3    4 ar
   7    3   39 1
   8    4    5 ar
   9    4   40 1
  10    5    6 ar
  11    5   26 1
  12    6   33 1
  13    7    8 1
  14    7   27 1
  15    7   29 1
  16    7   41 1
  17    8    9 am
  18    8   26 1
  19    9   10 1
  20    9   11 2
  21   10   12 1
  22   10   13 1
  23   10   42 1
  24   12   16 1
  25   12   43 1
  26   12   44 1
  27   13   14 1
  28   13   45 1
  29   13   46 1
  30   14   15 1
  31   14   47 1
  32   14   48 1
  33   15   30 am
  34   15   16 1
  35   16   49 1
  36   16   50 1
  37   17   30 1
  38   17   18 ar
  39   17   22 ar
  40   18   19 ar
  41   18   51 1
  42   19   20 ar
  43   19   23 1
  44   20   21 ar
  45   20   25 1
  46   21   22 ar
  47   21   52 1
  48   22   53 1
  49   23   24 2
  50   23   54 1
  51   24   25 1
  52   25   55 1
  53   26   56 1
  54   26   57 1
  55   27   28 1
  56   27   58 1
  57   27   59 1
  58   28   60 1
  59   28   61 1
  60   28   62 1
  61   29   63 1
  62   29   64 1
  63   29   65 1
  64   30   31 2
  65   30   32 2
  66   33   34 1
  67   33   35 1
  68   33   36 1

#	End of record

