#	Name: ASD02500908
#	Creating user name:	WinNT
#	Creation time:	15. 06. 2019 20:23

#	Modifying user name:	WinNT
#	Modification time:	15. 06. 2019 20:23

#	Program:	/corina/corina34_cracker 3.40 0067  02.08.2006

@<TRIPOS>MOLECULE
ASD02500908
  51   54    0    0    0
SMALL
NO_CHARGES


@<TRIPOS>ATOM
   1 C1            -0.0170     1.4039     0.0098 C.2     
   2 C2             0.0021    -0.0041     0.0020 C.2     
   3 C3            -1.2756    -0.7348     0.0127 C.ar    
   4 C4            -2.4434     0.0222    -0.2105 C.ar    
   5 O5            -2.3812     1.3521    -0.4531 O.3     
   6 C6            -1.3398     2.0750     0.0202 C.2     
   7 C7            -1.3496    -2.1052     0.2332 C.ar    
   8 C8            -2.5812    -2.7265     0.2437 C.ar    
   9 C9            -3.7346    -1.9855     0.0366 C.ar    
  10 C10           -3.6720    -0.6263    -0.1882 C.ar    
  11 C11            1.2453     1.9594     0.0007 C.2     
  12 C12            2.2477     1.0545    -0.0157 C.2     
  13 S13            1.5941    -0.5777    -0.0192 S.3     
  14 C14            3.6769     1.3858    -0.0286 C.2     
  15 N15            4.5968     0.4010    -0.0446 N.am    
  16 O16            4.0317     2.5498    -0.0249 O.2     
  17 O17           -1.4806     3.2101     0.4349 O.2     
  18 C18            6.0239     0.7318    -0.0575 C.3     
  19 C19           -2.6731    -4.2120     0.4799 C.3     
  20 C20            6.8464    -0.5582    -0.0744 C.3     
  21 N21            8.2774    -0.2264    -0.0873 N.3     
  22 C22            9.0973    -1.4243     0.1345 C.3     
  23 C23           10.5683    -1.0212     0.2597 C.3     
  24 C24           11.0083    -0.3089    -1.0224 C.3     
  25 C25           10.1076     0.9071    -1.2561 C.3     
  26 C26            8.6499     0.4481    -1.3374 C.3     
  27 C27           12.4606     0.1504    -0.8795 C.3     
  28 H28           -0.4493    -2.6795     0.3948 H       
  29 H29           -4.6949    -2.4794     0.0510 H       
  30 H30           -4.5805    -0.0642    -0.3467 H       
  31 H31            1.4174     3.0256     0.0058 H       
  32 H32            4.3140    -0.5269    -0.0475 H       
  33 H33            6.2525     1.3201    -0.9462 H       
  34 H34            6.2712     1.3087     0.8337 H       
  35 H35           -2.7702    -4.4047     1.5483 H       
  36 H36           -3.5438    -4.6097    -0.0416 H       
  37 H37           -1.7719    -4.6962     0.1038 H       
  38 H38            6.6179    -1.1465     0.8143 H       
  39 H39            6.5991    -1.1351    -0.9655 H       
  40 H40            8.7770    -1.9190     1.0514 H       
  41 H41            8.9782    -2.1069    -0.7070 H       
  42 H42           10.6905    -0.3495     1.1094 H       
  43 H43           11.1784    -1.9121     0.4087 H       
  44 H44           10.9230    -0.9930    -1.8667 H       
  45 H45           10.2225     1.6091    -0.4302 H       
  46 H46           10.3885     1.3939    -2.1900 H       
  47 H47            8.5329    -0.2433    -2.1719 H       
  48 H48            8.0047     1.3133    -1.4895 H       
  49 H49           13.1003    -0.7152    -0.7076 H       
  50 H50           12.7729     0.6573    -1.7926 H       
  51 H51           12.5435     0.8365    -0.0366 H       
@<TRIPOS>BOND
   1    1    2 2
   2    1   11 1
   3    1    6 1
   4    2    3 1
   5    2   13 1
   6    3    4 ar
   7    3    7 ar
   8    4    5 1
   9    4   10 ar
  10    5    6 1
  11    6   17 2
  12    7    8 ar
  13    7   28 1
  14    8    9 ar
  15    8   19 1
  16    9   10 ar
  17    9   29 1
  18   10   30 1
  19   11   12 2
  20   11   31 1
  21   12   13 1
  22   12   14 1
  23   14   15 am
  24   14   16 2
  25   15   18 1
  26   15   32 1
  27   18   20 1
  28   18   33 1
  29   18   34 1
  30   19   35 1
  31   19   36 1
  32   19   37 1
  33   20   21 1
  34   20   38 1
  35   20   39 1
  36   21   22 1
  37   21   26 1
  38   22   23 1
  39   22   40 1
  40   22   41 1
  41   23   24 1
  42   23   42 1
  43   23   43 1
  44   24   25 1
  45   24   27 1
  46   24   44 1
  47   25   26 1
  48   25   45 1
  49   25   46 1
  50   26   47 1
  51   26   48 1
  52   27   49 1
  53   27   50 1
  54   27   51 1

#	End of record

