#	Name: ASD00170405
#	Creating user name:	WinNT
#	Creation time:	15. 06. 2019 18:32

#	Modifying user name:	WinNT
#	Modification time:	15. 06. 2019 18:32

#	Program:	/corina/corina34_cracker 3.40 0067  02.08.2006

@<TRIPOS>MOLECULE
ASD00170405
  52   54    0    0    0
SMALL
NO_CHARGES


@<TRIPOS>ATOM
   1 C1            -0.0839     1.6712    -0.4705 C.2     
   2 C2             0.0082     0.3056    -0.6288 C.2     
   3 C3            -1.2500    -0.3688    -0.4151 C.2     
   4 C4            -2.2473     0.4698    -0.1073 C.2     
   5 S5            -1.6741     2.1274    -0.0616 S.3     
   6 C6            -1.4233    -1.8616    -0.5276 C.3     
   7 C7            -3.6397     0.0552     0.1626 C.ar    
   8 C8            -3.9074    -0.9149     1.1302 C.ar    
   9 C9            -5.2096    -1.2974     1.3771 C.ar    
  10 C10           -6.2492    -0.7218     0.6683 C.ar    
  11 C11           -5.9909     0.2402    -0.2920 C.ar    
  12 C12           -4.6938     0.6360    -0.5449 C.ar    
  13 N13            0.9686     2.5488    -0.6172 N.pl3   
  14 C14            1.2496    -0.3874    -0.9765 C.2     
  15 C15            1.5313    -0.7375    -2.3852 C.ar    
  16 O16            2.0505    -0.6756    -0.1057 O.2     
  17 C17            2.6588    -1.4954    -2.7070 C.ar    
  18 C18            2.9162    -1.8187    -4.0226 C.ar    
  19 C19            2.0591    -1.3928    -5.0238 C.ar    
  20 C20            0.9388    -0.6407    -4.7107 C.ar    
  21 C21            0.6676    -0.3164    -3.3981 C.ar    
  22 Cl22           2.3903    -1.8029    -6.6779 Cl      
  23 N23           -1.3345    -2.4669     0.8080 N.3     
  24 C24           -1.7315    -3.8808     0.7726 C.3     
  25 C25            0.0152    -2.3129     1.3671 C.3     
  26 C26            0.0081    -2.7234     2.8171 C.2     
  27 C27           -3.2312    -3.9788     0.6608 C.2     
  28 C28            0.8419    -3.6400     3.2424 C.2     
  29 C29           -3.7722    -4.6377    -0.3338 C.2     
  30 H30           -2.3981    -2.0825    -0.9625 H       
  31 H31           -0.6398    -2.2713    -1.1650 H       
  32 H32           -3.0968    -1.3652     1.6839 H       
  33 H33           -5.4181    -2.0480     2.1251 H       
  34 H34           -7.2669    -1.0251     0.8653 H       
  35 H35           -6.8070     0.6853    -0.8420 H       
  36 H36           -4.4936     1.3873    -1.2945 H       
  37 H37            1.8639     2.2103    -0.7750 H       
  38 H38            0.8142     3.5049    -0.5627 H       
  39 H39            3.3283    -1.8274    -1.9273 H       
  40 H40            3.7881    -2.4049    -4.2728 H       
  41 H41            0.2743    -0.3112    -5.4956 H       
  42 H42           -0.2063     0.2698    -3.1551 H       
  43 H43           -1.2705    -4.3662    -0.0876 H       
  44 H44           -1.4024    -4.3736     1.6875 H       
  45 H45            0.7116    -2.9435     0.8143 H       
  46 H46            0.3254    -1.2711     1.2859 H       
  47 H47           -0.6843    -2.2620     3.5056 H       
  48 H48           -3.8599    -3.5058     1.4007 H       
  49 H49            1.5343    -4.1014     2.5539 H       
  50 H50            0.8368    -3.9342     4.2815 H       
  51 H51           -3.1434    -5.1106    -1.0737 H       
  52 H52           -4.8469    -4.7079    -0.4139 H       
@<TRIPOS>BOND
   1    1    2 2
   2    1   13 1
   3    1    5 1
   4    2    3 1
   5    2   14 1
   6    3    4 2
   7    3    6 1
   8    4    5 1
   9    4    7 1
  10    6   23 1
  11    6   30 1
  12    6   31 1
  13    7    8 ar
  14    7   12 ar
  15    8    9 ar
  16    8   32 1
  17    9   10 ar
  18    9   33 1
  19   10   11 ar
  20   10   34 1
  21   11   12 ar
  22   11   35 1
  23   12   36 1
  24   13   37 1
  25   13   38 1
  26   14   15 1
  27   14   16 2
  28   15   17 ar
  29   15   21 ar
  30   17   18 ar
  31   17   39 1
  32   18   19 ar
  33   18   40 1
  34   19   20 ar
  35   19   22 1
  36   20   21 ar
  37   20   41 1
  38   21   42 1
  39   23   24 1
  40   23   25 1
  41   24   27 1
  42   24   43 1
  43   24   44 1
  44   25   26 1
  45   25   45 1
  46   25   46 1
  47   26   28 2
  48   26   47 1
  49   27   29 2
  50   27   48 1
  51   28   49 1
  52   28   50 1
  53   29   51 1
  54   29   52 1

#	End of record

