#	Name: ASD01870597
#	Creating user name:	WinNT
#	Creation time:	15. 06. 2019 19:39

#	Modifying user name:	WinNT
#	Modification time:	15. 06. 2019 19:39

#	Program:	/corina/corina34_cracker 3.40 0067  02.08.2006

@<TRIPOS>MOLECULE
ASD01870597
  40   43    0    0    0
SMALL
NO_CHARGES


@<TRIPOS>ATOM
   1 C1             0.0034     1.3679    -0.0285 C.ar    
   2 C2             0.0261    -0.0199    -0.0406 C.ar    
   3 C3             1.2285    -0.7002    -0.0547 C.ar    
   4 C4             2.4292    -0.0068    -0.0570 C.ar    
   5 C5             2.4232     1.3784    -0.0451 C.ar    
   6 C6             1.1970     2.0744    -0.0307 C.ar    
   7 C7             3.4764     2.4155    -0.0434 C.2     
   8 N8             2.8869     3.6246    -0.0290 N.am    
   9 C9             1.5466     3.5095    -0.0203 C.2     
  10 C10            3.5789     4.8451    -0.0225 C.ar    
  11 C11            2.8752     6.0418    -0.0075 C.ar    
  12 C12            3.5557     7.2428    -0.0016 C.ar    
  13 C13            4.9446     7.2539    -0.0103 C.ar    
  14 C14            5.6483     6.0565    -0.0249 C.ar    
  15 C15            4.9672     4.8558    -0.0255 C.ar    
  16 O16            0.7561     4.4316    -0.0068 O.2     
  17 O17            4.6735     2.2104    -0.0528 O.2     
  18 N18            5.6349     8.4715    -0.0048 N.am    
  19 C19            6.8053     8.5796     0.6548 C.2     
  20 C20            7.5860     9.8174     0.5645 C.2     
  21 O21            7.2141     7.6498     1.3253 O.2     
  22 C22            8.7816    10.0587     1.1788 C.2     
  23 C23            9.1653    11.3598     0.8182 C.2     
  24 C24            8.1994    11.8496     0.0099 C.2     
  25 O25            7.2520    10.9155    -0.1446 O.3     
  26 C26            9.5416     9.1116     2.0712 C.3     
  27 Cl27          -1.5117     2.2153    -0.0180 Cl      
  28 H28           -0.9023    -0.5717    -0.0386 H       
  29 H29            1.2332    -1.7802    -0.0637 H       
  30 H30            3.3657    -0.5446    -0.0678 H       
  31 H31            1.7952     6.0331    -0.0007 H       
  32 H32            3.0083     8.1737     0.0094 H       
  33 H33            6.7282     6.0648    -0.0320 H       
  34 H34            5.5144     3.9247    -0.0328 H       
  35 H35            5.2710     9.2375    -0.4756 H       
  36 H36           10.0632    11.8732     1.1288 H       
  37 H37            8.1942    12.8312    -0.4406 H       
  38 H38           10.2209     8.5097     1.4676 H       
  39 H39           10.1141     9.6821     2.8027 H       
  40 H40            8.8396     8.4580     2.5890 H       
@<TRIPOS>BOND
   1    1    2 ar
   2    1    6 ar
   3    1   27 1
   4    2    3 ar
   5    2   28 1
   6    3    4 ar
   7    3   29 1
   8    4    5 ar
   9    4   30 1
  10    5    7 1
  11    5    6 ar
  12    6    9 1
  13    7    8 am
  14    7   17 2
  15    8    9 am
  16    8   10 1
  17    9   16 2
  18   10   11 ar
  19   10   15 ar
  20   11   12 ar
  21   11   31 1
  22   12   13 ar
  23   12   32 1
  24   13   14 ar
  25   13   18 1
  26   14   15 ar
  27   14   33 1
  28   15   34 1
  29   18   19 am
  30   18   35 1
  31   19   20 1
  32   19   21 2
  33   20   22 2
  34   20   25 1
  35   22   23 1
  36   22   26 1
  37   23   24 2
  38   23   36 1
  39   24   25 1
  40   24   37 1
  41   26   38 1
  42   26   39 1
  43   26   40 1

#	End of record

