#	Name: ASD01913713
#	Creating user name:	WinNT
#	Creation time:	15. 06. 2019 20:02

#	Modifying user name:	WinNT
#	Modification time:	15. 06. 2019 20:02

#	Program:	/corina/corina34_cracker 3.40 0067  02.08.2006

@<TRIPOS>MOLECULE
ASD01913713
  53   57    0    0    0
SMALL
NO_CHARGES


@<TRIPOS>ATOM
   1 O1            -0.0163     1.3508     0.0095 O.3     
   2 C2             0.0021    -0.0041     0.0020 C.ar    
   3 N3             1.1629    -0.6408    -0.0125 N.ar    
   4 C4             1.2330    -1.9556    -0.0202 C.ar    
   5 C5             0.0719    -2.7293    -0.0137 C.ar    
   6 C6            -1.1744    -2.0856     0.0016 C.ar    
   7 C7            -1.1994    -0.7064     0.0154 C.ar    
   8 C8             0.1538    -4.2032    -0.0234 C.2     
   9 N9             1.3565    -4.8112    -0.0386 N.am    
  10 O10           -0.8637    -4.8686    -0.0177 O.2     
  11 C11            1.4378    -6.2739    -0.0482 C.3     
  12 C12            1.2480     2.0168     0.0010 C.3     
  13 C13            1.0303     3.5079     0.0111 C.ar    
  14 C14            0.9419     4.1854     1.2128 C.ar    
  15 C15            0.7422     5.5532     1.2220 C.ar    
  16 C16            0.6313     6.2436     0.0296 C.ar    
  17 C17            0.7206     5.5663    -1.1722 C.ar    
  18 C18            0.9247     4.1991    -1.1814 C.ar    
  19 C19            0.8428    -8.3583     1.1942 C.3     
  20 C20            0.1390    -8.9000    -0.0516 C.3     
  21 C21            0.8189    -8.3432    -1.3041 C.3     
  22 C22            0.7340    -6.8156    -1.2940 C.3     
  23 C23            2.9063    -6.7030    -0.0649 C.3     
  24 C24            2.9912    -8.2306    -0.0749 C.3     
  25 C25            2.3113    -8.7874     1.1776 C.3     
  26 C26            2.2874    -8.7724    -1.3207 C.3     
  27 C27            0.7580    -6.8307     1.2043 C.3     
  28 H28            2.1983    -2.4397    -0.0320 H       
  29 H29           -2.0916    -2.6557     0.0069 H       
  30 H30           -2.1409    -0.1774     0.0278 H       
  31 H31            2.1684    -4.2803    -0.0432 H       
  32 H32            1.8174     1.7267     0.8840 H       
  33 H33            1.8004     1.7363    -0.8958 H       
  34 H34            1.0285     3.6460     2.1444 H       
  35 H35            0.6724     6.0824     2.1609 H       
  36 H36            0.4745     7.3122     0.0368 H       
  37 H37            0.6337     6.1056    -2.1038 H       
  38 H38            0.9945     3.6699    -2.1203 H       
  39 H39            0.3585    -8.7550     2.0865 H       
  40 H40            0.1995    -9.9883    -0.0587 H       
  41 H41           -0.9072    -8.5943    -0.0397 H       
  42 H42            0.3175    -8.7292    -2.1916 H       
  43 H43           -0.3122    -6.5099    -1.2822 H       
  44 H44            1.2183    -6.4190    -2.1863 H       
  45 H45            3.3906    -6.3064    -0.9572 H       
  46 H46            3.4077    -6.3171     0.8227 H       
  47 H47            4.0373    -8.5363    -0.0868 H       
  48 H48            2.8127    -8.4015     2.0651 H       
  49 H49            2.3718    -9.8757     1.1704 H       
  50 H50            2.3478    -9.8607    -1.3279 H       
  51 H51            2.7717    -8.3757    -2.2130 H       
  52 H52            1.2594    -6.4448     2.0918 H       
  53 H53           -0.2882    -6.5250     1.2161 H       
@<TRIPOS>BOND
   1    1    2 1
   2    1   12 1
   3    2    3 ar
   4    2    7 ar
   5    3    4 ar
   6    4    5 ar
   7    4   28 1
   8    5    6 ar
   9    5    8 1
  10    6    7 ar
  11    6   29 1
  12    7   30 1
  13    8    9 am
  14    8   10 2
  15    9   11 1
  16    9   31 1
  17   11   23 1
  18   11   27 1
  19   11   22 1
  20   12   13 1
  21   12   32 1
  22   12   33 1
  23   13   14 ar
  24   13   18 ar
  25   14   15 ar
  26   14   34 1
  27   15   16 ar
  28   15   35 1
  29   16   17 ar
  30   16   36 1
  31   17   18 ar
  32   17   37 1
  33   18   38 1
  34   19   20 1
  35   19   25 1
  36   19   27 1
  37   19   39 1
  38   20   21 1
  39   20   40 1
  40   20   41 1
  41   21   22 1
  42   21   26 1
  43   21   42 1
  44   22   43 1
  45   22   44 1
  46   23   24 1
  47   23   45 1
  48   23   46 1
  49   24   25 1
  50   24   26 1
  51   24   47 1
  52   25   48 1
  53   25   49 1
  54   26   50 1
  55   26   51 1
  56   27   52 1
  57   27   53 1

#	End of record

