#	Name: ASD03080065
#	Creating user name:	WinNT
#	Creation time:	15. 06. 2019 20:26

#	Modifying user name:	WinNT
#	Modification time:	15. 06. 2019 20:26

#	Program:	/corina/corina34_cracker 3.40 0067  02.08.2006

@<TRIPOS>MOLECULE
ASD03080065
  37   40    0    0    0
SMALL
NO_CHARGES


@<TRIPOS>ATOM
   1 N1            -0.0162     1.3400     0.0094 N.am    
   2 C2             0.0022    -0.0041     0.0166 C.2     
   3 C3             1.4296    -0.5050     0.0055 C.3     
   4 C4             2.2679     0.7297     0.4102 C.3     
   5 C5             1.3436     1.8916    -0.0165 C.3     
   6 O6            -0.9824    -0.7122     0.0303 O.2     
   7 C7            -1.1822     2.1138     0.0193 C.ar    
   8 C8            -2.4217     1.5011    -0.0820 C.ar    
   9 C9            -3.5806     2.2766    -0.0712 C.ar    
  10 C10           -3.4849     3.6649     0.0417 C.ar    
  11 C11           -2.2466     4.2651     0.1420 C.ar    
  12 C12           -1.0978     3.4958     0.1366 C.ar    
  13 O13           -5.1478     0.3156    -0.2928 O.3     
  14 N14           -6.3427     0.1194    -0.3605 N.2     
  15 C15           -6.9936     1.2528    -0.3004 C.2     
  16 N16           -6.0781     2.2373    -0.1833 N.2     
  17 C17           -4.9062     1.6308    -0.1793 C.2     
  18 C18           -9.0351     2.6942    -0.2781 C.ar    
  19 C19           -8.4672     1.4242    -0.3520 C.ar    
  20 C20           -9.3069     0.3145    -0.4760 C.ar    
  21 C21          -10.6744     0.5274    -0.5201 C.ar    
  22 C22          -11.1605     1.8194    -0.4408 C.ar    
  23 N23          -10.3425     2.8477    -0.3242 N.ar    
  24 H24            1.5579    -1.3078     0.7315 H       
  25 H25            1.7072    -0.8440    -0.9926 H       
  26 H26            2.4440     0.7461     1.4858 H       
  27 H27            3.2095     0.7587    -0.1382 H       
  28 H28            1.5965     2.2246    -1.0231 H       
  29 H29            1.4284     2.7192     0.6878 H       
  30 H30           -2.4894     0.4268    -0.1694 H       
  31 H31           -4.3801     4.2689     0.0501 H       
  32 H32           -2.1746     5.3392     0.2289 H       
  33 H33           -0.1315     3.9709     0.2199 H       
  34 H34           -8.3978     3.5603    -0.1775 H       
  35 H35           -8.8998    -0.6840    -0.5362 H       
  36 H36          -11.3538    -0.3066    -0.6158 H       
  37 H37          -12.2265     1.9893    -0.4753 H       
@<TRIPOS>BOND
   1    1    2 am
   2    1    5 1
   3    1    7 1
   4    2    3 1
   5    2    6 2
   6    3    4 1
   7    3   24 1
   8    3   25 1
   9    4    5 1
  10    4   26 1
  11    4   27 1
  12    5   28 1
  13    5   29 1
  14    7    8 ar
  15    7   12 ar
  16    8    9 ar
  17    8   30 1
  18    9   10 ar
  19    9   17 1
  20   10   11 ar
  21   10   31 1
  22   11   12 ar
  23   11   32 1
  24   12   33 1
  25   13   14 1
  26   13   17 1
  27   14   15 2
  28   15   16 1
  29   15   19 1
  30   16   17 2
  31   18   19 ar
  32   18   23 ar
  33   18   34 1
  34   19   20 ar
  35   20   21 ar
  36   20   35 1
  37   21   22 ar
  38   21   36 1
  39   22   23 ar
  40   22   37 1

#	End of record

