#	Name: ASD01915879
#	Creating user name:	WinNT
#	Creation time:	15. 06. 2019 20:06

#	Modifying user name:	WinNT
#	Modification time:	15. 06. 2019 20:06

#	Program:	/corina/corina34_cracker 3.40 0067  02.08.2006

@<TRIPOS>MOLECULE
ASD01915879
  28   30    0    0    0
SMALL
NO_CHARGES


@<TRIPOS>ATOM
   1 C1            -0.0167     1.3816     0.0096 C.2     
   2 C2             0.0021    -0.0041     0.0020 C.2     
   3 C3            -1.3134    -0.7687     0.0120 C.3     
   4 C4            -2.3556     0.0579     0.7615 C.3     
   5 N5            -2.3968     1.4465     0.3225 N.am    
   6 C6            -1.2728     2.1395     0.0202 C.2     
   7 O7            -1.3031     3.3316    -0.2234 O.2     
   8 S8             1.6313     1.9715    -0.0029 S.3     
   9 C9             2.2203     0.3104    -0.0185 C.2     
  10 N10            1.2022    -0.5135    -0.0131 N.2     
  11 C11            3.5985    -0.0782    -0.0350 C.1     
  12 H12           -3.2566     1.8883     0.2413 H       
  13 C13            4.7284    -0.3968    -0.0484 C.1     
  14 C14            6.1066    -0.7854    -0.0649 C.ar    
  15 C15            6.4547    -2.1395    -0.0762 C.ar    
  16 C16            7.7840    -2.5058    -0.0920 C.ar    
  17 C17            8.7724    -1.5370    -0.0967 C.ar    
  18 C18            8.4357    -0.1947    -0.0855 C.ar    
  19 C19            7.1108     0.1874    -0.0755 C.ar    
  20 H20           -1.6469    -0.9357    -1.0122 H       
  21 H21           -1.1758    -1.7261     0.5146 H       
  22 H22           -3.3373    -0.3894     0.6059 H       
  23 H23           -2.1249     0.0325     1.8265 H       
  24 H24            5.6845    -2.8966    -0.0723 H       
  25 H25            8.0546    -3.5513    -0.1004 H       
  26 H26            9.8118    -1.8301    -0.1087 H       
  27 H27            9.2127     0.5555    -0.0892 H       
  28 H28            6.8496     1.2353    -0.0672 H       
@<TRIPOS>BOND
   1    1    2 2
   2    1    8 1
   3    1    6 1
   4    2    3 1
   5    2   10 1
   6    3    4 1
   7    3   20 1
   8    3   21 1
   9    4    5 1
  10    4   22 1
  11    4   23 1
  12    5    6 am
  13    5   12 1
  14    6    7 2
  15    8    9 1
  16    9   10 2
  17    9   11 1
  18   11   13 3
  19   13   14 1
  20   14   15 ar
  21   14   19 ar
  22   15   16 ar
  23   15   24 1
  24   16   17 ar
  25   16   25 1
  26   17   18 ar
  27   17   26 1
  28   18   19 ar
  29   18   27 1
  30   19   28 1

#	End of record

