#	Name: ASD00170317
#	Creating user name:	WinNT
#	Creation time:	15. 06. 2019 18:31

#	Modifying user name:	WinNT
#	Modification time:	15. 06. 2019 18:31

#	Program:	/corina/corina34_cracker 3.40 0067  02.08.2006

@<TRIPOS>MOLECULE
ASD00170317
  38   40    0    0    0
SMALL
NO_CHARGES


@<TRIPOS>ATOM
   1 S1             0.1576     1.6248     0.6732 S.3     
   2 N2            -0.1178     0.3150    -0.3760 N.pl3   
   3 C3             1.1096    -0.1394    -0.7262 C.2     
   4 N4             2.1486     0.4583    -0.2380 N.2     
   5 C5             1.9247     1.4944     0.5874 C.2     
   6 N6             2.8188     2.2464     1.1974 N.2     
   7 C7            -1.3529    -0.1881    -0.7902 C.ar    
   8 C8             1.2584    -1.2898    -1.6431 C.ar    
   9 C9            -2.2260     0.6166    -1.5121 C.ar    
  10 C10           -3.4465     0.1157    -1.9201 C.ar    
  11 C11           -3.8003    -1.1850    -1.6109 C.ar    
  12 C12           -2.9340    -1.9886    -0.8922 C.ar    
  13 C13           -1.7093    -1.4964    -0.4863 C.ar    
  14 C14            0.2894    -1.5408    -2.6157 C.ar    
  15 C15            0.4345    -2.6156    -3.4683 C.ar    
  16 C16            1.5376    -3.4438    -3.3608 C.ar    
  17 C17            2.5016    -3.2008    -2.3985 C.ar    
  18 C18            2.3713    -2.1260    -1.5434 C.ar    
  19 C19            4.2478     1.9868     1.0056 C.3     
  20 C20            4.8905     3.1761     0.2891 C.3     
  21 C21           -5.1331    -1.7279    -2.0579 C.3     
  22 H22           -1.9505     1.6326    -1.7536 H       
  23 H23           -4.1257     0.7407    -2.4809 H       
  24 H24           -3.2139    -3.0036    -0.6519 H       
  25 H25           -1.0333    -2.1245     0.0750 H       
  26 H26           -0.5722    -0.8953    -2.7004 H       
  27 H27           -0.3147    -2.8112    -4.2212 H       
  28 H28            1.6465    -4.2839    -4.0307 H       
  29 H29            3.3599    -3.8515    -2.3193 H       
  30 H30            3.1247    -1.9372    -0.7929 H       
  31 H31            4.7249     1.8459     1.9755 H       
  32 H32            4.3761     1.0873     0.4035 H       
  33 H33            4.4135     3.3171    -0.6808 H       
  34 H34            4.7623     4.0756     0.8912 H       
  35 H35            5.9538     2.9830     0.1464 H       
  36 H36           -5.0282    -2.1832    -3.0427 H       
  37 H37           -5.4773    -2.4779    -1.3457 H       
  38 H38           -5.8579    -0.9154    -2.1086 H       
@<TRIPOS>BOND
   1    1    2 1
   2    1    5 1
   3    2    3 1
   4    2    7 1
   5    3    4 2
   6    3    8 1
   7    4    5 1
   8    5    6 2
   9    6   19 1
  10    7    9 ar
  11    7   13 ar
  12    8   14 ar
  13    8   18 ar
  14    9   10 ar
  15    9   22 1
  16   10   11 ar
  17   10   23 1
  18   11   12 ar
  19   11   21 1
  20   12   13 ar
  21   12   24 1
  22   13   25 1
  23   14   15 ar
  24   14   26 1
  25   15   16 ar
  26   15   27 1
  27   16   17 ar
  28   16   28 1
  29   17   18 ar
  30   17   29 1
  31   18   30 1
  32   19   20 1
  33   19   31 1
  34   19   32 1
  35   20   33 1
  36   20   34 1
  37   20   35 1
  38   21   36 1
  39   21   37 1
  40   21   38 1

#	End of record

