#	Name: ASD01884064
#	Creating user name:	WinNT
#	Creation time:	15. 06. 2019 19:47

#	Modifying user name:	WinNT
#	Modification time:	15. 06. 2019 19:47

#	Program:	/corina/corina34_cracker 3.40 0067  02.08.2006

@<TRIPOS>MOLECULE
ASD01884064
  49   52    0    0    0
SMALL
NO_CHARGES


@<TRIPOS>ATOM
   1 C1             0.0382     1.4235    -0.0321 C.2     
   2 C2             0.0493     0.0072    -0.0008 C.2     
   3 C3             1.2780    -0.6614    -0.1451 C.2     
   4 C4             2.4486     0.1039    -0.3149 C.2     
   5 C5             2.3757     1.4540    -0.3367 C.2     
   6 N6             1.1897     2.1004    -0.1975 N.am    
   7 C7            -1.1664    -0.7289     0.1747 C.1     
   8 N8            -2.1308    -1.3129     0.3139 N.1     
   9 O9            -1.0139     2.0284     0.0855 O.2     
  10 C10            1.3402    -2.1374    -0.1185 C.ar    
  11 C11            1.7345    -2.8424    -1.2587 C.ar    
  12 C12            1.7911    -4.2190    -1.2298 C.ar    
  13 C13            1.4563    -4.9061    -0.0674 C.ar    
  14 C14            1.0639    -4.2078     1.0677 C.ar    
  15 C15            1.0104    -2.8312     1.0481 C.ar    
  16 O16            1.5127    -6.2624    -0.0424 O.3     
  17 C17            2.8033    -8.2259     0.3631 C.ar    
  18 C18            2.7035    -6.8460     0.2541 C.ar    
  19 C19            3.8403    -6.0688     0.4524 C.ar    
  20 C20            5.0319    -6.7094     0.7523 C.ar    
  21 C21            5.0522    -8.0884     0.8439 C.ar    
  22 N22            3.9564    -8.7961     0.6501 N.ar    
  23 C23            6.3442    -8.7927     1.1691 C.3     
  24 C24            1.5794    -9.0807     0.1572 C.3     
  25 Cl25           2.2802    -5.0967    -2.6455 Cl      
  26 C26            1.1629     3.5649    -0.2279 C.3     
  27 C27            1.3395     4.1077     1.1916 C.3     
  28 C28            1.4570     5.6241     1.3586 C.3     
  29 C29            0.1792     4.9033     1.7932 C.3     
  30 H30            3.4037    -0.3874    -0.4274 H       
  31 H31            3.2798     2.0302    -0.4672 H       
  32 H32            1.9941    -2.3093    -2.1613 H       
  33 H33            0.8046    -4.7447     1.9683 H       
  34 H34            0.7095    -2.2892     1.9325 H       
  35 H35            3.7952    -4.9926     0.3742 H       
  36 H36            5.9342    -6.1379     0.9122 H       
  37 H37            6.4379    -8.8992     2.2498 H       
  38 H38            6.3470    -9.7791     0.7053 H       
  39 H39            7.1821    -8.2094     0.7874 H       
  40 H40            1.4976    -9.3505    -0.8956 H       
  41 H41            1.6629    -9.9857     0.7589 H       
  42 H42            0.6924    -8.5240     0.4596 H       
  43 H43            1.9725     3.9300    -0.8598 H       
  44 H44            0.2077     3.9025    -0.6298 H       
  45 H45            1.9230     3.4805     1.8656 H       
  46 H46            2.1174     5.9944     2.1426 H       
  47 H47            1.4084     6.2349     0.4571 H       
  48 H48           -0.7099     5.0399     1.1776 H       
  49 H49           -0.0009     4.7995     2.8631 H       
@<TRIPOS>BOND
   1    1    2 1
   2    1    6 am
   3    1    9 2
   4    2    3 2
   5    2    7 1
   6    3    4 1
   7    3   10 1
   8    4    5 2
   9    4   30 1
  10    5    6 1
  11    5   31 1
  12    6   26 1
  13    7    8 3
  14   10   11 ar
  15   10   15 ar
  16   11   12 ar
  17   11   32 1
  18   12   13 ar
  19   12   25 1
  20   13   14 ar
  21   13   16 1
  22   14   15 ar
  23   14   33 1
  24   15   34 1
  25   16   18 1
  26   17   18 ar
  27   17   22 ar
  28   17   24 1
  29   18   19 ar
  30   19   20 ar
  31   19   35 1
  32   20   21 ar
  33   20   36 1
  34   21   22 ar
  35   21   23 1
  36   23   37 1
  37   23   38 1
  38   23   39 1
  39   24   40 1
  40   24   41 1
  41   24   42 1
  42   26   27 1
  43   26   43 1
  44   26   44 1
  45   27   28 1
  46   27   29 1
  47   27   45 1
  48   28   29 1
  49   28   46 1
  50   28   47 1
  51   29   48 1
  52   29   49 1

#	End of record

