#	Name: ASD07931957
#	Creating user name:	WinNT
#	Creation time:	15. 06. 2019 21:13

#	Modifying user name:	WinNT
#	Modification time:	15. 06. 2019 21:13

#	Program:	/corina/corina34_cracker 3.40 0067  02.08.2006

@<TRIPOS>MOLECULE
ASD07931957
  32   33    0    0    0
SMALL
NO_CHARGES


@<TRIPOS>ATOM
   1 C1            -0.0173     1.4248     0.0099 C.3     
   2 O2             0.0021    -0.0041     0.0020 O.3     
   3 O3             2.9628     2.7404     1.6140 O.3     
   4 C4             2.1386     1.5923     1.3167 C.3     
   5 C5             1.4181     1.9544    -0.0010 C.3     
   6 C6             1.4250     3.4993    -0.0204 C.3     
   7 C7             2.1489     3.8879     1.2878 C.3     
   8 C8             3.0079     0.3481     1.1239 C.3     
   9 F9             3.7064     0.0796     2.3059 F       
  10 F10            2.1943    -0.7443     0.8046 F       
  11 F11            3.9178     0.5714     0.0850 F       
  12 C12            2.1866     4.0089    -1.2168 C.ar    
  13 C13            3.5226     3.6820    -1.3781 C.ar    
  14 C14            4.2210     4.1510    -2.4776 C.ar    
  15 C15            3.5843     4.9447    -3.4130 C.ar    
  16 C16            2.2508     5.2707    -3.2507 C.ar    
  17 C17            1.5507     4.7979    -2.1562 C.ar    
  18 F18            4.1440     2.9065    -0.4629 F       
  19 N19            0.0515     4.0202    -0.0230 N.3     
  20 H20           -0.5445     1.7859    -0.8732 H       
  21 H21           -0.5275     1.7763     0.9067 H       
  22 H22           -0.8759    -0.4094     0.0082 H       
  23 H23            1.4130     1.4295     2.1136 H       
  24 H24            1.9655     1.5592    -0.8567 H       
  25 H25            1.4248     4.0772     2.0802 H       
  26 H26            2.7761     4.7650     1.1282 H       
  27 H27            5.2630     3.8969    -2.6042 H       
  28 H28            4.1289     5.3106    -4.2708 H       
  29 H29            1.7543     5.8916    -3.9818 H       
  30 H30            0.5075     5.0490    -2.0331 H       
  31 H31            0.0474     5.0291    -0.0356 H       
  32 H32           -0.4755     3.6467    -0.7982 H       
@<TRIPOS>BOND
   1    1    2 1
   2    1    5 1
   3    1   20 1
   4    1   21 1
   5    2   22 1
   6    3    4 1
   7    3    7 1
   8    4    5 1
   9    4    8 1
  10    4   23 1
  11    5    6 1
  12    5   24 1
  13    6    7 1
  14    6   12 1
  15    6   19 1
  16    7   25 1
  17    7   26 1
  18    8    9 1
  19    8   10 1
  20    8   11 1
  21   12   13 ar
  22   12   17 ar
  23   13   14 ar
  24   13   18 1
  25   14   15 ar
  26   14   27 1
  27   15   16 ar
  28   15   28 1
  29   16   17 ar
  30   16   29 1
  31   17   30 1
  32   19   31 1
  33   19   32 1

#	End of record

