#	Name: ASD05430710
#	Creating user name:	WinNT
#	Creation time:	15. 06. 2019 21:00

#	Modifying user name:	WinNT
#	Modification time:	15. 06. 2019 21:00

#	Program:	/corina/corina34_cracker 3.40 0067  02.08.2006

@<TRIPOS>MOLECULE
ASD05430710
  73   77    0    0    0
SMALL
NO_CHARGES


@<TRIPOS>ATOM
   1 C1             0.0355     1.1953    -0.5788 C.ar    
   2 C2             0.0183    -0.1943    -0.4226 C.ar    
   3 C3             1.2438     1.8521    -0.8292 C.ar    
   4 C4             2.4159     1.1250    -0.9211 C.ar    
   5 C5             2.3910    -0.2602    -0.7647 C.ar    
   6 C6             1.1907    -0.9128    -0.5156 C.ar    
   7 N7             3.5810    -0.9963    -0.8587 N.pl3   
   8 C8             4.0340    -1.9306     0.0361 C.2     
   9 C9             4.4992    -0.9224    -1.8566 C.2     
  10 N10            5.4674    -1.7575    -1.5935 N.2     
  11 C11            5.2080    -2.3888    -0.4390 C.2     
  12 C12            6.0792    -3.4310     0.2136 C.3     
  13 C13           -3.6046     2.1050    -0.0109 C.2     
  14 C14           -4.8401     1.4651     0.1125 C.2     
  15 C15           -5.9927     2.2347     0.3412 C.2     
  16 N16           -5.9172     3.5340     0.4379 N.2     
  17 N17           -4.6955     4.2034     0.3188 N.am    
  18 C18           -3.5547     3.5179     0.1053 C.2     
  19 O19           -2.4915     4.1075     0.0027 O.2     
  20 C20           -4.6541     5.6633     0.4337 C.3     
  21 C21           -5.5293     6.2856    -0.6560 C.3     
  22 C22           -5.1696     6.0755     1.7884 C.ar    
  23 C23           -4.5534     7.1026     2.4787 C.ar    
  24 C24           -5.0256     7.4818     3.7209 C.ar    
  25 C25           -6.1162     6.8324     4.2742 C.ar    
  26 C26           -6.7325     5.8038     3.5819 C.ar    
  27 C27           -6.2618     5.4299     2.3375 C.ar    
  28 F28           -6.5783     7.2019     5.4887 F       
  29 C29           -2.3800     1.3294    -0.2504 C.2     
  30 C30           -1.2169     1.9640    -0.4859 C.2     
  31 O31            3.5928     1.7605    -1.1645 O.3     
  32 C32            3.5442     3.1808    -1.3144 C.3     
  33 C33           -4.8644    -4.0763    -1.4410 C.ar    
  34 C34           -5.9188    -4.6584    -0.7525 C.ar    
  35 C35           -6.8926    -3.8575    -0.1737 C.ar    
  36 C36           -6.8099    -2.4829    -0.2838 C.ar    
  37 C37           -5.7581    -1.9052    -0.9705 C.ar    
  38 C38           -4.7865    -2.7012    -1.5487 C.ar    
  39 C39           -5.6706    -0.4055    -1.0895 C.3     
  40 O40           -5.9979    -6.0108    -0.6456 O.3     
  41 C41           -7.1108    -6.5405     0.0775 C.3     
  42 O42           -4.9257     0.1171     0.0124 O.3     
  43 H43           -0.9137    -0.7044    -0.2288 H       
  44 H44            1.2616     2.9251    -0.9508 H       
  45 H45            1.1759    -1.9859    -0.3950 H       
  46 H46            3.5438    -2.2397     0.9475 H       
  47 H47            4.4385    -0.2801    -2.7228 H       
  48 H48            6.7863    -2.9445     0.8856 H       
  49 H49            5.4559    -4.1223     0.7807 H       
  50 H50            6.6257    -3.9798    -0.5533 H       
  51 H51           -6.9512     1.7463     0.4376 H       
  52 H52           -3.6268     6.0080     0.3155 H       
  53 H53           -5.1565     5.9875    -1.6359 H       
  54 H54           -6.5566     5.9409    -0.5379 H       
  55 H55           -5.4985     7.3718    -0.5706 H       
  56 H56           -3.7025     7.6087     2.0471 H       
  57 H57           -4.5439     8.2840     4.2602 H       
  58 H58           -7.5832     5.2966     4.0125 H       
  59 H59           -6.7424     4.6276     1.7973 H       
  60 H60           -2.4132     0.2500    -0.2374 H       
  61 H61           -1.2021     3.0371    -0.6068 H       
  62 H62            2.8950     3.4358    -2.1521 H       
  63 H63            3.1525     3.6294    -0.4015 H       
  64 H64            4.5481     3.5607    -1.5041 H       
  65 H65           -4.1027    -4.6974    -1.8887 H       
  66 H66           -7.7146    -4.3083     0.3625 H       
  67 H67           -7.5677    -1.8590     0.1666 H       
  68 H68           -3.9659    -2.2476    -2.0846 H       
  69 H69           -5.1715    -0.1435    -2.0224 H       
  70 H70           -6.6747     0.0186    -1.0831 H       
  71 H71           -7.0531    -7.6289     0.0872 H       
  72 H72           -7.0902    -6.1665     1.1012 H       
  73 H73           -8.0380    -6.2301    -0.4041 H       
@<TRIPOS>BOND
   1    1    2 ar
   2    1    3 ar
   3    1   30 1
   4    2    6 ar
   5    2   43 1
   6    3    4 ar
   7    3   44 1
   8    4    5 ar
   9    4   31 1
  10    5    6 ar
  11    5    7 1
  12    6   45 1
  13    7    8 1
  14    7    9 1
  15    8   11 2
  16    8   46 1
  17    9   10 2
  18    9   47 1
  19   10   11 1
  20   11   12 1
  21   12   48 1
  22   12   49 1
  23   12   50 1
  24   13   14 2
  25   13   29 1
  26   13   18 1
  27   14   15 1
  28   14   42 1
  29   15   16 2
  30   15   51 1
  31   16   17 1
  32   17   18 am
  33   17   20 1
  34   18   19 2
  35   20   21 1
  36   20   22 1
  37   20   52 1
  38   21   53 1
  39   21   54 1
  40   21   55 1
  41   22   23 ar
  42   22   27 ar
  43   23   24 ar
  44   23   56 1
  45   24   25 ar
  46   24   57 1
  47   25   26 ar
  48   25   28 1
  49   26   27 ar
  50   26   58 1
  51   27   59 1
  52   29   30 2
  53   29   60 1
  54   30   61 1
  55   31   32 1
  56   32   62 1
  57   32   63 1
  58   32   64 1
  59   33   34 ar
  60   33   38 ar
  61   33   65 1
  62   34   35 ar
  63   34   40 1
  64   35   36 ar
  65   35   66 1
  66   36   37 ar
  67   36   67 1
  68   37   38 ar
  69   37   39 1
  70   38   68 1
  71   39   42 1
  72   39   69 1
  73   39   70 1
  74   40   41 1
  75   41   71 1
  76   41   72 1
  77   41   73 1

#	End of record

