#	Name: ASD01820213
#	Creating user name:	WinNT
#	Creation time:	15. 06. 2019 19:36

#	Modifying user name:	WinNT
#	Modification time:	15. 06. 2019 19:36

#	Program:	/corina/corina34_cracker 3.40 0067  02.08.2006

@<TRIPOS>MOLECULE
ASD01820213
  76   77    0    0    0
SMALL
NO_CHARGES


@<TRIPOS>ATOM
   1 C1            -0.0167     1.3792     0.0096 C.ar    
   2 C2             0.0021    -0.0041     0.0020 C.ar    
   3 C3             1.2052    -0.6867    -0.0127 C.ar    
   4 C4             2.3979     0.0092    -0.0203 C.ar    
   5 C5             2.3873     1.4069    -0.0131 C.ar    
   6 C6             1.1675     2.0893     0.0021 C.ar    
   7 Cl7            1.1414     3.8251     0.0106 Cl      
   8 Cl8            3.9065    -0.8496    -0.0381 Cl      
   9 C9             3.6568     2.1579    -0.0207 C.2     
  10 N10            3.6432     3.4515    -0.0141 N.2     
  11 C11            4.9041     4.1974    -0.0216 C.3     
  12 C12            5.0209     4.9883    -1.3261 C.3     
  13 N13            6.2853     5.7363    -1.3336 N.4     
  14 C14            6.3975     6.4957    -2.5861 C.3     
  15 C15            7.7143     7.2747    -2.5939 C.3     
  16 C16            7.8312     8.0656    -3.8984 C.3     
  17 C17            9.1480     8.8446    -3.9063 C.3     
  18 C18            9.2649     9.6355    -5.2107 C.3     
  19 C19           10.5818    10.4145    -5.2186 C.3     
  20 N20           10.6940    11.1739    -6.4711 N.4     
  21 C21           11.9583    11.9218    -6.4786 C.3     
  22 C22           12.0752    12.7128    -7.7831 C.3     
  23 N23           13.3361    13.4587    -7.7906 N.2     
  24 C24           14.2517    13.1725    -8.6585 C.2     
  25 C25           15.5213    13.9235    -8.6661 C.ar    
  26 C26            6.3125     6.6636    -0.1946 C.3     
  27 C27            7.4102     4.7975    -1.2277 C.3     
  28 C28           10.6668    10.2466    -7.6101 C.3     
  29 C29            9.5691    12.1127    -6.5770 C.3     
  30 C30           16.5130    13.6173    -9.6023 C.ar    
  31 C31           17.6988    14.3248    -9.6030 C.ar    
  32 C32           17.9065    15.3344    -8.6803 C.ar    
  33 C33           16.9300    15.6431    -7.7503 C.ar    
  34 C34           15.7364    14.9488    -7.7408 C.ar    
  35 Cl35          14.5125    15.3380    -6.5728 Cl      
  36 Cl36          16.2549    12.3504   -10.7608 Cl      
  37 H37           -0.9600     1.9050     0.0169 H       
  38 H38           -0.9274    -0.5539     0.0079 H       
  39 H39            1.2117    -1.7666    -0.0178 H       
  40 H40            4.5977     1.6279    -0.0318 H       
  41 H41            4.9242     4.8855     0.8236 H       
  42 H42            5.7387     3.5008     0.0570 H       
  43 H43            5.0008     4.3003    -2.1712 H       
  44 H44            4.1863     5.6849    -1.4046 H       
  45 H45            6.3773     5.8076    -3.4312 H       
  46 H46            5.5628     7.1923    -2.6647 H       
  47 H47            7.7345     7.9627    -1.7488 H       
  48 H48            8.5490     6.5781    -2.5153 H       
  49 H49            7.8110     7.3775    -4.7436 H       
  50 H50            6.9965     8.7622    -3.9770 H       
  51 H51            9.1682     9.5326    -3.0611 H       
  52 H52            9.9827     8.1480    -3.8277 H       
  53 H53            9.2448     8.9475    -6.0559 H       
  54 H54            8.4302    10.3321    -5.2893 H       
  55 H55           10.6019    11.1026    -4.3734 H       
  56 H56           11.4164     9.7179    -5.1400 H       
  57 H57           11.9785    12.6099    -5.6335 H       
  58 H58           12.7930    11.2252    -6.4000 H       
  59 H59           12.0550    12.0247    -8.6282 H       
  60 H60           11.2405    13.4093    -7.8617 H       
  61 H61           14.0866    12.3837    -9.3776 H       
  62 H62            6.2292     6.1001     0.7347 H       
  63 H63            7.2506     7.2185    -0.2002 H       
  64 H64            5.4778     7.3601    -0.2732 H       
  65 H65            7.3900     4.1094    -2.0728 H       
  66 H66            8.3483     5.3524    -1.2333 H       
  67 H67            7.3269     4.2340    -0.2984 H       
  68 H68            9.7287     9.6916    -7.6045 H       
  69 H69           10.7501    10.8101    -8.5394 H       
  70 H70           11.5015     9.5500    -7.5315 H       
  71 H71            9.5892    12.8007    -5.7318 H       
  72 H72            9.6523    12.6762    -7.5063 H       
  73 H73            8.6309    11.5577    -6.5714 H       
  74 H74           18.4662    14.0892   -10.3254 H       
  75 H75           18.8361    15.8843    -8.6858 H       
  76 H76           17.0997    16.4324    -7.0329 H       
@<TRIPOS>BOND
   1    1    2 ar
   2    1    6 ar
   3    1   37 1
   4    2    3 ar
   5    2   38 1
   6    3    4 ar
   7    3   39 1
   8    4    5 ar
   9    4    8 1
  10    5    6 ar
  11    5    9 1
  12    6    7 1
  13    9   10 2
  14    9   40 1
  15   10   11 1
  16   11   12 1
  17   11   41 1
  18   11   42 1
  19   12   13 1
  20   12   43 1
  21   12   44 1
  22   13   14 1
  23   13   26 1
  24   13   27 1
  25   14   15 1
  26   14   45 1
  27   14   46 1
  28   15   16 1
  29   15   47 1
  30   15   48 1
  31   16   17 1
  32   16   49 1
  33   16   50 1
  34   17   18 1
  35   17   51 1
  36   17   52 1
  37   18   19 1
  38   18   53 1
  39   18   54 1
  40   19   20 1
  41   19   55 1
  42   19   56 1
  43   20   21 1
  44   20   28 1
  45   20   29 1
  46   21   22 1
  47   21   57 1
  48   21   58 1
  49   22   23 1
  50   22   59 1
  51   22   60 1
  52   23   24 2
  53   24   25 1
  54   24   61 1
  55   25   30 ar
  56   25   34 ar
  57   26   62 1
  58   26   63 1
  59   26   64 1
  60   27   65 1
  61   27   66 1
  62   27   67 1
  63   28   68 1
  64   28   69 1
  65   28   70 1
  66   29   71 1
  67   29   72 1
  68   29   73 1
  69   30   31 ar
  70   30   36 1
  71   31   32 ar
  72   31   74 1
  73   32   33 ar
  74   32   75 1
  75   33   34 ar
  76   33   76 1
  77   34   35 1

#	End of record

