#	Name: ASD04590118
#	Creating user name:	WinNT
#	Creation time:	15. 06. 2019 20:50

#	Modifying user name:	WinNT
#	Modification time:	15. 06. 2019 20:50

#	Program:	/corina/corina34_cracker 3.40 0067  02.08.2006

@<TRIPOS>MOLECULE
ASD04590118
  40   42    0    0    0
SMALL
NO_CHARGES


@<TRIPOS>ATOM
   1 N1            -0.0715     1.2693    -0.0448 N.pl3   
   2 N2            -0.0331    -0.0137     0.0019 N.2     
   3 C3             1.1985    -0.4415    -0.1988 C.2     
   4 C4             2.0114     0.7056    -0.3908 C.2     
   5 C5             1.1686     1.7674    -0.2856 C.2     
   6 C6             1.6461    -1.8466    -0.2188 C.2     
   7 N7             0.7573    -2.8399    -0.0194 N.am    
   8 O8             2.8171    -2.1089    -0.4153 O.2     
   9 N9             3.3923     0.7375    -0.6365 N.am    
  10 C10            4.0210     1.9187    -0.7974 C.2     
  11 C11            6.3769     2.0183     0.0131 C.ar    
  12 C12            5.4716     1.9521    -1.0554 C.ar    
  13 C13            1.1616    -4.1740    -0.1353 C.ar    
  14 C14            2.4410    -4.5610     0.2553 C.ar    
  15 C15            2.7951    -5.8937     0.1212 C.ar    
  16 C16            1.8748    -6.7885    -0.3916 C.ar    
  17 N17            0.6705    -6.3901    -0.7526 N.ar    
  18 C18            0.2910    -5.1333    -0.6365 C.ar    
  19 C19            7.7393     2.0488    -0.2412 C.ar    
  20 C20            8.2034     2.0147    -1.5418 C.ar    
  21 C21            7.3155     1.9489    -2.6016 C.ar    
  22 C22            5.9544     1.9176    -2.3688 C.ar    
  23 O23            5.9213     2.0579     1.2903 O.3     
  24 F24            5.0912     1.8533    -3.4061 F       
  25 O25            3.3913     2.9570    -0.7297 O.2     
  26 C26            6.9023     2.1247     2.3272 C.3     
  27 H27           -0.8717     1.8051     0.0711 H       
  28 H28            1.4351     2.8100    -0.3767 H       
  29 H29           -0.1628    -2.6297     0.2045 H       
  30 H30            3.8945    -0.0906    -0.6905 H       
  31 H31            3.1401    -3.8400     0.6526 H       
  32 H32            3.7790    -6.2295     0.4137 H       
  33 H33            2.1458    -7.8285    -0.4985 H       
  34 H34           -0.7036    -4.8447    -0.9428 H       
  35 H35            8.4395     2.0998     0.5795 H       
  36 H36            9.2661     2.0391    -1.7330 H       
  37 H37            7.6885     1.9233    -3.6149 H       
  38 H38            7.5023     3.0261     2.2022 H       
  39 H39            6.4050     2.1509     3.2968 H       
  40 H40            7.5480     1.2482     2.2736 H       
@<TRIPOS>BOND
   1    1    2 1
   2    1    5 1
   3    1   27 1
   4    2    3 2
   5    3    4 1
   6    3    6 1
   7    4    5 2
   8    4    9 1
   9    5   28 1
  10    6    7 am
  11    6    8 2
  12    7   13 1
  13    7   29 1
  14    9   10 am
  15    9   30 1
  16   10   25 2
  17   10   12 1
  18   11   12 ar
  19   11   19 ar
  20   11   23 1
  21   12   22 ar
  22   13   14 ar
  23   13   18 ar
  24   14   15 ar
  25   14   31 1
  26   15   16 ar
  27   15   32 1
  28   16   17 ar
  29   16   33 1
  30   17   18 ar
  31   18   34 1
  32   19   20 ar
  33   19   35 1
  34   20   21 ar
  35   20   36 1
  36   21   22 ar
  37   21   37 1
  38   22   24 1
  39   23   26 1
  40   26   38 1
  41   26   39 1
  42   26   40 1

#	End of record

