#	Name: ASD01140124
#	Creating user name:	WinNT
#	Creation time:	15. 06. 2019 19:00

#	Modifying user name:	WinNT
#	Modification time:	15. 06. 2019 19:00

#	Program:	/corina/corina34_cracker 3.40 0067  02.08.2006

@<TRIPOS>MOLECULE
ASD01140124
  12   12    0    0    0
SMALL
NO_CHARGES


@<TRIPOS>ATOM
   1 C1            -0.0184     1.5089     0.0103 C.2     
   2 C2             0.0021    -0.0041     0.0020 C.3     
   3 C3            -1.4921    -0.3859     0.0148 C.3     
   4 C4            -2.1999     0.9514     0.0290 C.2     
   5 N5            -1.2884     1.9320     0.0306 N.am    
   6 Br6           -1.7463     3.7244     0.0466 Br      
   7 O7             0.9601     2.2245     0.0048 O.2     
   8 O8            -3.4017     1.1098     0.0414 O.2     
   9 H9             0.4854    -0.3762    -0.9013 H       
  10 H10            0.5032    -0.3858     0.8915 H       
  11 H11           -1.7521    -0.9480    -0.8822 H       
  12 H12           -1.7343    -0.9576     0.9107 H       
@<TRIPOS>BOND
   1    1    2 1
   2    1    7 2
   3    1    5 am
   4    2    3 1
   5    2    9 1
   6    2   10 1
   7    3    4 1
   8    3   11 1
   9    3   12 1
  10    4    5 am
  11    4    8 2
  12    5    6 1

#	End of record

