#	Name: ASD03340001
#	Creating user name:	WinNT
#	Creation time:	15. 06. 2019 20:40

#	Modifying user name:	WinNT
#	Modification time:	15. 06. 2019 20:40

#	Program:	/corina/corina34_cracker 3.40 0067  02.08.2006

@<TRIPOS>MOLECULE
ASD03340001
  18   17    0    0    0
SMALL
NO_CHARGES


@<TRIPOS>ATOM
   1 C1            -0.0184     1.5028     0.0103 C.2     
   2 C2             0.0021    -0.0041     0.0020 C.3     
   3 C3             1.4513    -0.4944    -0.0145 C.3     
   4 O4             2.1072    -0.0027    -1.1849 O.3     
   5 C5             2.1665     0.0110     1.2120 C.2     
   6 C6             1.4720    -2.0242    -0.0229 C.3     
   7 C7             2.8952    -2.5079     0.0848 C.2     
   8 O8             1.0291     2.1267     0.0037 O.co2   
   9 O9            -1.0824     2.0980     0.0186 O.co2   
  10 O10            1.7646    -0.2952     2.3216 O.co2   
  11 O11            3.1471     0.7259     1.0946 O.co2   
  12 O12            3.8083    -1.7036     0.1612 O.co2   
  13 O13            3.1336    -3.7035     0.0955 O.co2   
  14 H14           -0.4983    -0.3791     0.8948 H       
  15 H15           -0.5153    -0.3696    -0.8850 H       
  16 H16            1.6997    -0.2890    -2.0138 H       
  17 H17            0.8956    -2.4001     0.8225 H       
  18 H18            1.0338    -2.3884    -0.9521 H       
@<TRIPOS>BOND
   1    1    2 1
   2    1    8 ar
   3    1    9 ar
   4    2    3 1
   5    2   14 1
   6    2   15 1
   7    3    4 1
   8    3    5 1
   9    3    6 1
  10    4   16 1
  11    5   10 ar
  12    5   11 ar
  13    6    7 1
  14    6   17 1
  15    6   18 1
  16    7   12 ar
  17    7   13 ar

#	End of record

