#	Name: ASD05430151
#	Creating user name:	WinNT
#	Creation time:	15. 06. 2019 20:59

#	Modifying user name:	WinNT
#	Modification time:	15. 06. 2019 20:59

#	Program:	/corina/corina34_cracker 3.40 0067  02.08.2006

@<TRIPOS>MOLECULE
ASD05430151
  64   69    0    0    0
SMALL
NO_CHARGES


@<TRIPOS>ATOM
   1 C1            -0.1925     1.2134     1.0550 C.ar    
   2 C2            -0.0106     0.0276     0.3499 C.ar    
   3 C3            -1.0511    -0.4595    -0.4438 C.ar    
   4 C4            -2.2404     0.2254    -0.5274 C.ar    
   5 C5            -2.4176     1.4174     0.1833 C.ar    
   6 C6            -1.3772     1.9033     0.9838 C.ar    
   7 C7            -4.9443    -0.0334     0.1334 C.3     
   8 C8            -4.8502     1.4780    -0.0125 C.2     
   9 C9            -3.6899     2.1520     0.0940 C.2     
  10 C10           -6.0919    -0.3622     1.0927 C.3     
  11 C11           -7.4321     0.1350     0.5511 C.3     
  12 N12           -7.3366     1.5112     0.0900 N.pl3   
  13 C13           -6.1453     2.1437    -0.2822 C.2     
  14 C14           -8.7488     3.1313     1.2558 C.ar    
  15 C15           -9.2993     4.3985     1.3040 C.ar    
  16 C16           -9.6320     4.9621     2.5211 C.ar    
  17 C17           -8.8636     2.9875     3.6431 C.ar    
  18 C18           -8.5309     2.4263     2.4248 C.ar    
  19 N19           -6.3839     3.2740    -0.8506 N.2     
  20 C20           -9.4142     4.2570     3.6926 C.ar    
  21 F21           -9.7390     4.8070     4.8831 F       
  22 C22           -8.3918     2.5155    -0.0725 C.3     
  23 O23           -7.7854     3.4952    -0.9413 O.3     
  24 C24           -9.6267     1.8992    -0.7328 C.3     
  25 O25          -10.6376     2.8985    -0.8788 O.3     
  26 C26            1.0965     1.4639     1.8041 C.3     
  27 C27            1.9758     0.2918     1.4234 C.2     
  28 N28            1.2640    -0.4824     0.5876 N.am    
  29 C29            1.7702    -1.7223    -0.0061 C.3     
  30 O30            3.1102     0.0896     1.8021 O.2     
  31 C31           -6.1627    -1.8825     1.2766 C.3     
  32 O32           -4.8789    -2.3607     1.7173 O.3     
  33 P33           -4.1896    -1.6793     3.0217 P.3     
  34 O34           -4.5235    -0.0924     2.9155 O.3     
  35 C35           -5.8186     0.3173     2.4398 C.3     
  36 O36           -4.7719    -2.2424     4.2603 O.2     
  37 C37           -2.3866    -1.9465     2.9929 C.3     
  38 H38           -0.9208    -1.3789    -0.9953 H       
  39 H39           -3.0402    -0.1578    -1.1438 H       
  40 H40           -1.5030     2.8224     1.5368 H       
  41 H41           -5.1408    -0.4833    -0.8398 H       
  42 H42           -4.0085    -0.4210     0.5361 H       
  43 H43           -3.6925     3.2318     0.1138 H       
  44 H44           -7.7388    -0.4996    -0.2803 H       
  45 H45           -8.1811     0.0741     1.3407 H       
  46 H46           -9.4691     4.9484     0.3901 H       
  47 H47          -10.0614     5.9524     2.5586 H       
  48 H48           -8.6939     2.4363     4.5562 H       
  49 H49           -8.1014     1.4361     2.3859 H       
  50 H50           -9.3573     1.5088    -1.7142 H       
  51 H51          -10.0048     1.0881    -0.1105 H       
  52 H52          -11.4512     2.5777    -1.2914 H       
  53 H53            1.5494     2.4016     1.4822 H       
  54 H54            0.9178     1.4741     2.8793 H       
  55 H55            2.7896    -1.8996     0.3368 H       
  56 H56            1.1353    -2.5553     0.2956 H       
  57 H57            1.7625    -1.6345    -1.0926 H       
  58 H58           -6.9184    -2.1248     2.0238 H       
  59 H59           -6.4214    -2.3530     0.3280 H       
  60 H60           -5.8350     1.3997     2.3125 H       
  61 H61           -6.5820     0.0213     3.1593 H       
  62 H62           -1.9813    -1.5892     2.0462 H       
  63 H63           -1.9250    -1.3998     3.8152 H       
  64 H64           -2.1752    -3.0105     3.1001 H       
@<TRIPOS>BOND
   1    1    2 ar
   2    1   26 1
   3    1    6 ar
   4    2    3 ar
   5    2   28 1
   6    3    4 ar
   7    3   38 1
   8    4    5 ar
   9    4   39 1
  10    5    6 ar
  11    5    9 1
  12    6   40 1
  13    7    8 1
  14    7   10 1
  15    7   41 1
  16    7   42 1
  17    8    9 2
  18    8   13 1
  19    9   43 1
  20   10   11 1
  21   10   31 1
  22   10   35 1
  23   11   12 1
  24   11   44 1
  25   11   45 1
  26   12   13 1
  27   12   22 1
  28   13   19 2
  29   14   15 ar
  30   14   18 ar
  31   14   22 1
  32   15   16 ar
  33   15   46 1
  34   16   20 ar
  35   16   47 1
  36   17   18 ar
  37   17   20 ar
  38   17   48 1
  39   18   49 1
  40   19   23 1
  41   20   21 1
  42   22   23 1
  43   22   24 1
  44   24   25 1
  45   24   50 1
  46   24   51 1
  47   25   52 1
  48   26   27 1
  49   26   53 1
  50   26   54 1
  51   27   28 am
  52   27   30 2
  53   28   29 1
  54   29   55 1
  55   29   56 1
  56   29   57 1
  57   31   32 1
  58   31   58 1
  59   31   59 1
  60   32   33 1
  61   33   34 1
  62   33   36 2
  63   33   37 1
  64   34   35 1
  65   35   60 1
  66   35   61 1
  67   37   62 1
  68   37   63 1
  69   37   64 1

#	End of record

