#	Name: ASD05260001
#	Creating user name:	WinNT
#	Creation time:	15. 06. 2019 20:58

#	Modifying user name:	WinNT
#	Modification time:	15. 06. 2019 20:58

#	Program:	/corina/corina34_cracker 3.40 0067  02.08.2006

@<TRIPOS>MOLECULE
ASD05260001
  48   51    0    0    0
SMALL
NO_CHARGES


@<TRIPOS>ATOM
   1 O1            -0.0110     0.9628     0.0073 O.3     
   2 O2             1.0874    10.1803     1.9929 O.3     
   3 O3             2.3151    11.3112    -0.2045 O.3     
   4 C4             1.1781     3.0899     0.0074 C.3     
   5 C5             2.5778     3.5072    -0.5244 C.3     
   6 C6             2.5010     4.9843    -0.8420 C.3     
   7 C7             2.2731     5.7176     0.4865 C.3     
   8 C8             1.2864     1.5618    -0.0018 C.3     
   9 C9             0.9896     3.7364     1.3657 C.3     
  10 C10            2.8002     2.5607    -1.6990 C.3     
  11 C11            0.9865     5.2631     1.1597 C.3     
  12 C12            2.0155     1.2733    -1.3427 C.3     
  13 C13            3.8031     5.5078    -1.4480 C.3     
  14 C14            0.0876     3.5652    -0.9547 C.3     
  15 C15            2.2971     7.2023     0.2669 C.ar    
  16 C16            3.5698     6.9454    -1.9107 C.3     
  17 C17            2.9038     7.7652    -0.8370 C.ar    
  18 C18            1.6877     8.0158     1.2123 C.ar    
  19 C19            2.9081     9.1466    -0.9874 C.ar    
  20 C20            1.6875     9.3905     1.0625 C.ar    
  21 C21            2.3049     9.9605    -0.0468 C.ar    
  22 C22            0.4743     9.5229     3.1038 C.3     
  23 H23            3.3320     3.3329     0.2430 H       
  24 H24            1.6643     5.1729    -1.5147 H       
  25 H25            3.1033     5.4751     1.1500 H       
  26 H26            1.8772     1.2118     0.8447 H       
  27 H27            0.0402     3.4196     1.7973 H       
  28 H28            1.8094     3.4542     2.0264 H       
  29 H29            2.4090     2.9996    -2.6168 H       
  30 H30            3.8615     2.3378    -1.8086 H       
  31 H31            0.8942     5.7557     2.1277 H       
  32 H32            0.1373     5.5392     0.5347 H       
  33 H33            2.7039     0.4369    -1.2219 H       
  34 H34            1.2883     1.0503    -2.1235 H       
  35 H35            4.5928     5.4867    -0.6970 H       
  36 H36            4.0875     4.8890    -2.2990 H       
  37 H37            0.2466     3.1156    -1.9349 H       
  38 H38           -0.8890     3.2677    -0.5727 H       
  39 H39            0.1281     4.6509    -1.0421 H       
  40 H40            4.5283     7.3989    -2.1632 H       
  41 H41            2.9359     6.9364    -2.7974 H       
  42 H42            0.0021    -0.0041     0.0020 H       
  43 H43            1.2092     7.5711     2.0723 H       
  44 H44            3.3879     9.5889    -1.8478 H       
  45 H45            1.5578    11.6554    -0.6975 H       
  46 H46           -0.3048     8.8510     2.7435 H       
  47 H47            1.2257     8.9497     3.6468 H       
  48 H48            0.0341    10.2664     3.7683 H       
@<TRIPOS>BOND
   1    1   42 1
   2    1    8 1
   3    2   20 1
   4    2   22 1
   5    3   21 1
   6    3   45 1
   7    4    5 1
   8    4    9 1
   9    4   14 1
  10    4    8 1
  11    5    6 1
  12    5   10 1
  13    5   23 1
  14    6    7 1
  15    6   13 1
  16    6   24 1
  17    7   11 1
  18    7   15 1
  19    7   25 1
  20    8   12 1
  21    8   26 1
  22    9   11 1
  23    9   27 1
  24    9   28 1
  25   10   12 1
  26   10   29 1
  27   10   30 1
  28   11   31 1
  29   11   32 1
  30   12   33 1
  31   12   34 1
  32   13   16 1
  33   13   35 1
  34   13   36 1
  35   14   37 1
  36   14   38 1
  37   14   39 1
  38   15   17 ar
  39   15   18 ar
  40   16   17 1
  41   16   40 1
  42   16   41 1
  43   17   19 ar
  44   18   20 ar
  45   18   43 1
  46   19   21 ar
  47   19   44 1
  48   20   21 ar
  49   22   46 1
  50   22   47 1
  51   22   48 1

#	End of record

