#	Name: ASD02030277
#	Creating user name:	WinNT
#	Creation time:	15. 06. 2019 20:15

#	Modifying user name:	WinNT
#	Modification time:	15. 06. 2019 20:15

#	Program:	/corina/corina34_cracker 3.40 0067  02.08.2006

@<TRIPOS>MOLECULE
ASD02030277
  59   63    0    0    0
SMALL
NO_CHARGES


@<TRIPOS>ATOM
   1 N1            -0.2095     1.4217    -0.1410 N.am    
   2 C2            -0.0189    -0.0117     0.1217 C.3     
   3 C3            -0.9156    -0.4177     1.2979 C.3     
   4 N4            -2.2747     0.0818     1.0466 N.am    
   5 C5            -2.4652     1.5151     0.7838 C.3     
   6 C6            -1.5692     1.9221    -0.3868 C.3     
   7 C7             0.8433     2.2631    -0.1509 C.2     
   8 C8             2.1859     1.7717     0.2253 C.2     
   9 N9             3.2645     2.5090     0.3798 N.2     
  10 N10            2.5188     0.4921     0.4757 N.2     
  11 C11            3.7932     0.4728     0.7729 C.2     
  12 N12            4.2460     1.7417     0.7088 N.pl3   
  13 C13            5.5616     2.1556     0.9576 C.ar    
  14 O14            0.6889     3.4261    -0.4691 O.2     
  15 C15           -3.3275    -0.7597     1.0565 C.2     
  16 C16           -4.6998    -0.2285     0.9122 C.ar    
  17 O17           -3.1488    -1.9552     1.1840 O.2     
  18 C18            5.8989     3.4986     0.8571 C.ar    
  19 C19            7.1963     3.9043     1.1032 C.ar    
  20 C20            8.1592     2.9747     1.4491 C.ar    
  21 C21            7.8266     1.6348     1.5499 C.ar    
  22 C22            6.5288     1.2241     1.3107 C.ar    
  23 C23           -1.5428     3.4471    -0.5073 C.3     
  24 C24           -5.6688    -0.9699     0.2386 C.ar    
  25 C25           -6.9574    -0.4631     0.1072 C.ar    
  26 C26           -7.2731     0.7819     0.6490 C.ar    
  27 C27           -6.3094     1.5135     1.3160 C.ar    
  28 C28           -5.0300     1.0150     1.4556 C.ar    
  29 C29           -7.9948    -1.2466    -0.6092 C.2     
  30 N30           -7.8272    -2.4285    -1.1636 N.2     
  31 N31           -9.0456    -2.8187    -1.7337 N.pl3   
  32 C32           -9.9483    -1.8403    -1.5069 C.2     
  33 C33           -9.3338    -0.8593    -0.8106 C.2     
  34 C34           -9.2969    -4.0706    -2.4520 C.3     
  35 Cl35           9.0390     0.4703     1.9833 Cl      
  36 H36           -0.2941    -0.5856    -0.7631 H       
  37 H37            1.0242    -0.2018     0.3743 H       
  38 H38           -0.9353    -1.5041     1.3849 H       
  39 H39           -0.5301     0.0185     2.2194 H       
  40 H40           -3.5084     1.7052     0.5313 H       
  41 H41           -2.1900     2.0890     1.6687 H       
  42 H42           -1.9525     1.4863    -1.3095 H       
  43 H43            4.3760    -0.4005     1.0263 H       
  44 H44            5.1476     4.2257     0.5862 H       
  45 H45            7.4587     4.9490     1.0250 H       
  46 H46            9.1728     3.2943     1.6407 H       
  47 H47            6.2692     0.1787     1.3897 H       
  48 H48           -1.0465     3.8719     0.3652 H       
  49 H49           -0.9995     3.7310    -1.4085 H       
  50 H50           -2.5637     3.8248    -0.5643 H       
  51 H51           -5.4200    -1.9339    -0.1799 H       
  52 H52           -8.2735     1.1758     0.5468 H       
  53 H53           -6.5593     2.4777     1.7335 H       
  54 H54           -4.2807     1.5912     1.9780 H       
  55 H55          -10.9810    -1.8435    -1.8230 H       
  56 H56           -9.7868     0.0617    -0.4747 H       
  57 H57           -9.6277    -4.8337    -1.7475 H       
  58 H58          -10.0704    -3.9096    -3.2029 H       
  59 H59           -8.3796    -4.3998    -2.9401 H       
@<TRIPOS>BOND
   1    1    2 1
   2    1    7 am
   3    1    6 1
   4    2    3 1
   5    2   36 1
   6    2   37 1
   7    3    4 1
   8    3   38 1
   9    3   39 1
  10    4    5 1
  11    4   15 am
  12    5    6 1
  13    5   40 1
  14    5   41 1
  15    6   23 1
  16    6   42 1
  17    7    8 1
  18    7   14 2
  19    8    9 2
  20    8   10 1
  21    9   12 1
  22   10   11 2
  23   11   12 1
  24   11   43 1
  25   12   13 1
  26   13   18 ar
  27   13   22 ar
  28   15   16 1
  29   15   17 2
  30   16   24 ar
  31   16   28 ar
  32   18   19 ar
  33   18   44 1
  34   19   20 ar
  35   19   45 1
  36   20   21 ar
  37   20   46 1
  38   21   22 ar
  39   21   35 1
  40   22   47 1
  41   23   48 1
  42   23   49 1
  43   23   50 1
  44   24   25 ar
  45   24   51 1
  46   25   26 ar
  47   25   29 1
  48   26   27 ar
  49   26   52 1
  50   27   28 ar
  51   27   53 1
  52   28   54 1
  53   29   30 2
  54   29   33 1
  55   30   31 1
  56   31   32 1
  57   31   34 1
  58   32   33 2
  59   32   55 1
  60   33   56 1
  61   34   57 1
  62   34   58 1
  63   34   59 1

#	End of record

