#	Name: ASD02508121
#	Creating user name:	WinNT
#	Creation time:	15. 06. 2019 20:23

#	Modifying user name:	WinNT
#	Modification time:	15. 06. 2019 20:23

#	Program:	/corina/corina34_cracker 3.40 0067  02.08.2006

@<TRIPOS>MOLECULE
ASD02508121
  35   37    0    0    0
SMALL
NO_CHARGES


@<TRIPOS>ATOM
   1 C1            -0.0170     1.3988     0.0097 C.ar    
   2 C2             0.0021    -0.0041     0.0020 C.ar    
   3 C3             1.2118     2.0606     0.0016 C.ar    
   4 C4             2.4076     1.3659    -0.0132 C.ar    
   5 C5             2.4018    -0.0158    -0.0201 C.ar    
   6 C6             1.1936    -0.6910    -0.0130 C.ar    
   7 N7            -1.1184     2.2356     0.0192 N.am    
   8 C8            -0.9189     3.5572     0.0250 C.2     
   9 S9             0.8372     3.7894     0.0138 S.3     
  10 S10            3.9195    -0.9106    -0.0383 S.o2    
  11 N11            4.3561    -1.1675     1.5383 N.am    
  12 C12            3.9141    -2.3720     2.2573 C.3     
  13 O13           -1.7716     4.4257     0.0330 O.2     
  14 C14           -2.4758     1.6845     0.0222 C.3     
  15 O15            3.6256    -2.1882    -0.5866 O.2     
  16 O16            4.8949    -0.0350    -0.5872 O.2     
  17 C17            5.1398    -3.0366     2.8931 C.3     
  18 N18            5.8566    -2.0514     3.7137 N.3     
  19 C19            6.3713    -0.9474     2.8925 C.3     
  20 C20            5.2012    -0.2001     2.2548 C.3     
  21 H21           -0.9293    -0.5507     0.0083 H       
  22 H22            3.3447     1.9027    -0.0196 H       
  23 H23            1.1864    -1.7710    -0.0184 H       
  24 H24            3.2035    -2.0937     3.0356 H       
  25 H25            3.4437    -3.0637     1.5585 H       
  26 H26           -2.8079     1.5423     1.0506 H       
  27 H27           -3.1495     2.3753    -0.4849 H       
  28 H28           -2.4800     0.7261    -0.4968 H       
  29 H29            4.8182    -3.8677     3.5208 H       
  30 H30            5.8005    -3.4067     2.1092 H       
  31 H31            5.2699    -1.7053     4.4580 H       
  32 H32            6.9430    -0.2634     3.5197 H       
  33 H33            7.0149    -1.3466     2.1086 H       
  34 H34            5.5802     0.5455     1.5560 H       
  35 H35            4.6116     0.2877     3.0311 H       
@<TRIPOS>BOND
   1    1    2 ar
   2    1    3 ar
   3    1    7 1
   4    2    6 ar
   5    2   21 1
   6    3    4 ar
   7    3    9 1
   8    4    5 ar
   9    4   22 1
  10    5    6 ar
  11    5   10 1
  12    6   23 1
  13    7    8 am
  14    7   14 1
  15    8    9 1
  16    8   13 2
  17   10   11 am
  18   10   15 2
  19   10   16 2
  20   11   12 1
  21   11   20 1
  22   12   17 1
  23   12   24 1
  24   12   25 1
  25   14   26 1
  26   14   27 1
  27   14   28 1
  28   17   18 1
  29   17   29 1
  30   17   30 1
  31   18   19 1
  32   18   31 1
  33   19   20 1
  34   19   32 1
  35   19   33 1
  36   20   34 1
  37   20   35 1

#	End of record

