#	Name: ASD01208742
#	Creating user name:	WinNT
#	Creation time:	15. 06. 2019 19:10

#	Modifying user name:	WinNT
#	Modification time:	15. 06. 2019 19:10

#	Program:	/corina/corina34_cracker 3.40 0067  02.08.2006

@<TRIPOS>MOLECULE
ASD01208742
  52   55    0    0    0
SMALL
NO_CHARGES


@<TRIPOS>ATOM
   1 C1             0.1637     1.3102    -0.1916 C.2     
   2 C2             0.1927    -0.1053     0.2136 C.ar    
   3 C3             1.3806    -0.8453     0.1051 C.ar    
   4 C4             1.3989    -2.1752     0.4887 C.ar    
   5 C5             0.2465    -2.7725     0.9782 C.ar    
   6 C6            -0.9318    -2.0404     1.0859 C.ar    
   7 C7            -0.9615    -0.7162     0.7134 C.ar    
   8 O8             1.1705     1.8405    -0.6213 O.2     
   9 N9            -0.9797     2.0165    -0.0914 N.am    
  10 O10            2.5062    -0.2595    -0.3743 O.3     
  11 C11            3.6177    -1.0284    -0.5083 C.ar    
  12 C12            3.7263    -1.9089    -1.5773 C.ar    
  13 C13            4.8524    -2.6911    -1.7164 C.ar    
  14 C14            5.8851    -2.5974    -0.7813 C.ar    
  15 C15            5.7725    -1.7109     0.2915 C.ar    
  16 C16            4.6455    -0.9283     0.4209 C.ar    
  17 O17            8.1616    -3.4475    -0.1034 O.3     
  18 C18            7.0940    -3.4347    -0.9266 C.2     
  19 N19            7.3287    -4.3048    -1.8812 N.2     
  20 N20            8.4789    -4.8476    -1.6870 N.2     
  21 C21            9.0196    -4.3501    -0.6103 C.2     
  22 C22           10.3636    -4.7195    -0.0375 C.3     
  23 O23            0.2684    -4.0767     1.3533 O.3     
  24 C24           -0.9171    -6.1762     1.5171 C.3     
  25 C25           -0.9777    -4.6630     1.7348 C.3     
  26 C26           -1.2479    -4.3707     3.2121 C.3     
  27 C27           -0.7771    -6.4599     0.0795 C.1     
  28 N28           -0.6690    -6.6789    -1.0300 N.1     
  29 S29           -2.3835     4.3634    -0.4001 S.3     
  30 C30           -1.0070     3.3521    -0.4737 C.2     
  31 N31            0.0074     4.0122    -0.9371 N.2     
  32 C32           -0.1964     5.2788    -1.2513 C.2     
  33 C33           -1.4437     5.7078    -1.0427 C.2     
  34 Cl34          -2.0356     7.3104    -1.3510 Cl      
  35 H35            2.3107    -2.7482     0.4064 H       
  36 H36           -1.8254    -2.5121     1.4673 H       
  37 H37           -1.8769    -0.1501     0.8031 H       
  38 H38           -1.7836     1.5926     0.2475 H       
  39 H39            2.9271    -1.9807    -2.3001 H       
  40 H40            4.9358    -3.3759    -2.5473 H       
  41 H41            6.5692    -1.6357     1.0168 H       
  42 H42            4.5595    -0.2392     1.2480 H       
  43 H43           10.2451    -5.5455     0.6638 H       
  44 H44           11.0320    -5.0208    -0.8441 H       
  45 H45           10.7859    -3.8595     0.4821 H       
  46 H46           -0.0615    -6.5865     2.0534 H       
  47 H47           -1.8333    -6.6339     1.8902 H       
  48 H48           -1.7788    -4.2405     1.1283 H       
  49 H49           -1.2910    -3.2926     3.3671 H       
  50 H50           -2.1983    -4.8179     3.5030 H       
  51 H51           -0.4467    -4.7932     3.8185 H       
  52 H52            0.5822     5.9156    -1.6445 H       
@<TRIPOS>BOND
   1    1    2 1
   2    1    8 2
   3    1    9 am
   4    2    3 ar
   5    2    7 ar
   6    3    4 ar
   7    3   10 1
   8    4    5 ar
   9    4   35 1
  10    5    6 ar
  11    5   23 1
  12    6    7 ar
  13    6   36 1
  14    7   37 1
  15    9   30 1
  16    9   38 1
  17   10   11 1
  18   11   12 ar
  19   11   16 ar
  20   12   13 ar
  21   12   39 1
  22   13   14 ar
  23   13   40 1
  24   14   15 ar
  25   14   18 1
  26   15   16 ar
  27   15   41 1
  28   16   42 1
  29   17   18 1
  30   17   21 1
  31   18   19 2
  32   19   20 1
  33   20   21 2
  34   21   22 1
  35   22   43 1
  36   22   44 1
  37   22   45 1
  38   23   25 1
  39   24   25 1
  40   24   27 1
  41   24   46 1
  42   24   47 1
  43   25   26 1
  44   25   48 1
  45   26   49 1
  46   26   50 1
  47   26   51 1
  48   27   28 3
  49   29   30 1
  50   29   33 1
  51   30   31 2
  52   31   32 1
  53   32   33 2
  54   32   52 1
  55   33   34 1

#	End of record

