#	Name: ASD04840023
#	Creating user name:	WinNT
#	Creation time:	15. 06. 2019 20:52

#	Modifying user name:	WinNT
#	Modification time:	15. 06. 2019 20:52

#	Program:	/corina/corina34_cracker 3.40 0067  02.08.2006

@<TRIPOS>MOLECULE
ASD04840023
  50   50    0    0    0
SMALL
NO_CHARGES


@<TRIPOS>ATOM
   1 C1            -0.0162     1.3425     0.0094 C.2     
   2 C2             0.0021    -0.0041     0.0020 C.2     
   3 N3             1.2885     1.7563    -0.0008 N.pl3   
   4 C4             2.0592     0.6475    -0.0141 C.cat   
   5 N5             1.2830    -0.4016    -0.0123 N.pl3   
   6 C6             1.7388    -1.7938    -0.0237 C.3     
   7 C7             1.9108    -2.2859     1.4147 C.3     
   8 O8             0.6601    -2.1998     2.1004 O.3     
   9 P9             2.4780    -4.0184     1.4005 P.3     
  10 P10            3.1443    -1.2497     2.2681 P.3     
  11 O11            3.3155    -1.7396     3.7002 O.2     
  12 O12            4.5535    -1.3467     1.4955 O.3     
  13 O13            2.6703     0.1980     2.2799 O.3     
  14 O14            3.8674    -4.0928     0.7803 O.2     
  15 O15            2.5333    -4.5774     2.9094 O.3     
  16 O16            1.4553    -4.9109     0.5347 O.3     
  17 C17            1.7607     3.1431     0.0017 C.3     
  18 C18            1.9393     3.6185     1.4450 C.3     
  19 C19            2.4324     5.0668     1.4476 C.3     
  20 C20            2.6109     5.5422     2.8909 C.3     
  21 C21            3.1040     6.9905     2.8935 C.3     
  22 C22            3.2826     7.4659     4.3368 C.3     
  23 C23            3.7757     8.9142     4.3394 C.3     
  24 C24            3.9543     9.3896     5.7827 C.3     
  25 H25           -0.8920     1.9744     0.0172 H       
  26 H26           -0.8630    -0.6505     0.0071 H       
  27 H27            3.1390     0.6315    -0.0251 H       
  28 H28            1.0013    -2.4134    -0.5340 H       
  29 H29            2.6929    -1.8595    -0.5468 H       
  30 H30           -0.0448    -2.7275     1.7007 H       
  31 H31            5.2583    -0.8190     1.8953 H       
  32 H32            2.8276    -5.4959     2.9780 H       
  33 H33            0.5493    -4.9100     0.8727 H       
  34 H34            2.7152     3.2029    -0.5213 H       
  35 H35            1.0303     3.7765    -0.5017 H       
  36 H36            0.9848     3.5587     1.9679 H       
  37 H37            2.6697     2.9851     1.9484 H       
  38 H38            3.3869     5.1266     0.9246 H       
  39 H39            1.7020     5.7002     0.9442 H       
  40 H40            1.6564     5.4824     3.4138 H       
  41 H41            3.3413     4.9088     3.3943 H       
  42 H42            4.0585     7.0503     2.3706 H       
  43 H43            2.3736     7.6239     2.3901 H       
  44 H44            2.3281     7.4061     4.8597 H       
  45 H45            4.0130     6.8325     4.8402 H       
  46 H46            4.7302     8.9740     3.8165 H       
  47 H47            3.0453     9.5476     3.8360 H       
  48 H48            4.6847     8.7562     6.2861 H       
  49 H49            4.3056    10.4214     5.7846 H       
  50 H50            2.9998     9.3298     6.3056 H       
@<TRIPOS>BOND
   1    1    2 2
   2    1    3 1
   3    1   25 1
   4    2    5 1
   5    2   26 1
   6    3    4 ar
   7    3   17 1
   8    4    5 ar
   9    4   27 1
  10    5    6 1
  11    6    7 1
  12    6   28 1
  13    6   29 1
  14    7    8 1
  15    7    9 1
  16    7   10 1
  17    8   30 1
  18    9   14 2
  19    9   15 1
  20    9   16 1
  21   10   11 2
  22   10   12 1
  23   10   13 1
  24   12   31 1
  25   15   32 1
  26   16   33 1
  27   17   18 1
  28   17   34 1
  29   17   35 1
  30   18   19 1
  31   18   36 1
  32   18   37 1
  33   19   20 1
  34   19   38 1
  35   19   39 1
  36   20   21 1
  37   20   40 1
  38   20   41 1
  39   21   22 1
  40   21   42 1
  41   21   43 1
  42   22   23 1
  43   22   44 1
  44   22   45 1
  45   23   24 1
  46   23   46 1
  47   23   47 1
  48   24   48 1
  49   24   49 1
  50   24   50 1

#	End of record

