#	Name: ASD07330009
#	Creating user name:	WinNT
#	Creation time:	15. 06. 2019 21:11

#	Modifying user name:	WinNT
#	Modification time:	15. 06. 2019 21:11

#	Program:	/corina/corina34_cracker 3.40 0067  02.08.2006

@<TRIPOS>MOLECULE
ASD07330009
  58   61    0    0    0
SMALL
NO_CHARGES


@<TRIPOS>ATOM
   1 F1             6.4375    -8.2036     0.8349 F       
   2 C2             0.0946     1.1475    -0.8987 C.ar    
   3 C3             0.0951    -0.0227    -0.1542 C.ar    
   4 N4             1.2040    -0.5231     0.3484 N.ar    
   5 C5             2.3788     0.0714     0.1650 C.ar    
   6 C6             2.4509     1.2676    -0.5846 C.ar    
   7 C7             1.2864     1.8133    -1.1247 C.ar    
   8 N8             3.5213    -0.4429     0.6826 N.2     
   9 C9             4.6715     0.1347     0.5063 C.2     
  10 N10            4.8319     1.2847    -0.1992 N.am    
  11 C11            3.7656     1.8967    -0.7663 C.2     
  12 O12            3.8916     2.9272    -1.4019 O.2     
  13 C13            6.1105     1.8418    -0.3406 C.ar    
  14 C14            6.9469     1.4107    -1.3617 C.ar    
  15 C15            8.2059     1.9601    -1.5007 C.ar    
  16 C16            8.6353     2.9428    -0.6204 C.ar    
  17 C17            7.8000     3.3740     0.4000 C.ar    
  18 C18            6.5388     2.8291     0.5368 C.ar    
  19 C19            5.8921    -0.5043     1.1168 C.3     
  20 C20            6.0210    -0.0657     2.5770 C.3     
  21 N21            5.7626    -1.9662     1.0543 N.3     
  22 C22            7.0818    -2.6126     1.0663 C.3     
  23 C23            6.9090    -4.1082     1.0011 C.ar    
  24 C24            6.6547    -4.7295    -0.2220 C.ar    
  25 C25            6.4958    -6.1146    -0.2749 C.ar    
  26 C26            6.5910    -6.8622     0.8833 C.ar    
  27 C27            6.8433    -6.2378     2.0945 C.ar    
  28 C28            7.0075    -4.8659     2.1504 C.ar    
  29 O29            9.8752     3.4831    -0.7575 O.3     
  30 C30           11.6691     4.9750    -0.1277 C.3     
  31 C31           10.2518     4.4901     0.1838 C.3     
  32 K32            4.4262    -2.4225    -3.1285 Du      
  33 F33            2.5388    -2.8389    -1.8634 F       
  34 F34            4.2683    -1.1627    -5.0582 F       
  35 F35            6.4714    -3.2659    -2.4638 F       
  36 B36            6.5475    -3.8732    -1.5336 Du      
  37 H37           -0.8293     1.5341    -1.3030 H       
  38 H38           -0.8390    -0.5367     0.0180 H       
  39 H39            1.3142     2.7260    -1.7015 H       
  40 H40            6.6129     0.6456    -2.0467 H       
  41 H41            8.8567     1.6247    -2.2946 H       
  42 H42            8.1350     4.1387     1.0852 H       
  43 H43            5.8885     3.1651     1.3310 H       
  44 H44            6.7792    -0.1942     0.5647 H       
  45 H45            6.8802    -0.5600     3.0303 H       
  46 H46            6.1584     1.0147     2.6210 H       
  47 H47            5.1162    -0.3393     3.1197 H       
  48 H48            5.1845    -2.3105     1.8062 H       
  49 H49            7.6592    -2.2757     0.2053 H       
  50 H50            7.6081    -2.3472     1.9831 H       
  51 H51            6.2985    -6.6013    -1.2187 H       
  52 H52            6.9166    -6.8255     2.9976 H       
  53 H53            7.2039    -4.3850     3.0973 H       
  54 H54           12.3629     4.1370    -0.0603 H       
  55 H55           11.6979     5.3903    -1.1350 H       
  56 H56           11.9564     5.7431     0.5903 H       
  57 H57            9.5581     5.3282     0.1164 H       
  58 H58           10.2231     4.0748     1.1912 H       
@<TRIPOS>BOND
   1    1   26 1
   2    2    3 ar
   3    2    7 ar
   4    2   37 1
   5    3    4 ar
   6    3   38 1
   7    4    5 ar
   8    5    6 ar
   9    5    8 1
  10    6    7 ar
  11    6   11 1
  12    7   39 1
  13    8    9 2
  14    9   10 1
  15    9   19 1
  16   10   11 am
  17   10   13 1
  18   11   12 2
  19   13   14 ar
  20   13   18 ar
  21   14   15 ar
  22   14   40 1
  23   15   16 ar
  24   15   41 1
  25   16   17 ar
  26   16   29 1
  27   17   18 ar
  28   17   42 1
  29   18   43 1
  30   19   20 1
  31   19   21 1
  32   19   44 1
  33   20   45 1
  34   20   46 1
  35   20   47 1
  36   21   22 1
  37   21   48 1
  38   22   23 1
  39   22   49 1
  40   22   50 1
  41   23   24 ar
  42   23   28 ar
  43   24   25 ar
  44   24   36 1
  45   25   26 ar
  46   25   51 1
  47   26   27 ar
  48   27   28 ar
  49   27   52 1
  50   28   53 1
  51   29   31 1
  52   30   31 1
  53   30   54 1
  54   30   55 1
  55   30   56 1
  56   31   57 1
  57   31   58 1
  58   32   33 1
  59   32   34 1
  60   32   35 1
  61   35   36 2

#	End of record

