#	Name: ASD01915068
#	Creating user name:	WinNT
#	Creation time:	15. 06. 2019 20:04

#	Modifying user name:	WinNT
#	Modification time:	15. 06. 2019 20:04

#	Program:	/corina/corina34_cracker 3.40 0067  02.08.2006

@<TRIPOS>MOLECULE
ASD01915068
  39   42    0    0    0
SMALL
NO_CHARGES


@<TRIPOS>ATOM
   1 C1            -0.0169     1.3918     0.0097 C.ar    
   2 C2             0.0021    -0.0041     0.0020 C.ar    
   3 N3            -1.1415    -0.6923     0.0096 N.ar    
   4 C4            -2.3143    -0.1035     0.0244 C.ar    
   5 C5            -2.4179     1.2851     0.0329 C.ar    
   6 C6            -1.2647     2.0490     0.0306 C.ar    
   7 C7             1.3289     1.9587    -0.0001 C.2     
   8 C8             2.3069     1.0538    -0.0143 C.2     
   9 S9             1.6661    -0.5772    -0.0169 S.3     
  10 C10            1.5851     3.4167     0.0045 C.ar    
  11 C11            1.2206     4.2064     1.0992 C.ar    
  12 S12            4.0244     1.4468    -0.0291 S.o2    
  13 O13            4.6889     0.3209    -0.5858 O.2     
  14 O14            4.1315     2.7573    -0.5679 O.2     
  15 C15            4.5493     1.5546     1.6495 C.ar    
  16 C16            5.0221     0.4282     2.2979 C.ar    
  17 C17            4.4928     2.7637     2.3117 C.ar    
  18 C18            4.9092     2.8489     3.6415 C.ar    
  19 C19            5.3808     1.7080     4.2937 C.ar    
  20 C20            5.4373     0.5043     3.6180 C.ar    
  21 C21            1.4786     5.5637     1.0612 C.ar    
  22 N22            2.0601     6.1134     0.0095 N.ar    
  23 C23            2.4190     5.4016    -1.0433 C.ar    
  24 C24            2.2044     4.0415    -1.0852 C.ar    
  25 N25           -3.6750     1.9011     0.0482 N.pl3   
  26 F26            5.8932    -0.6013     4.2465 F       
  27 F27            1.1316     6.3383     2.1123 F       
  28 C28            4.8533     4.1013     4.3336 C.1     
  29 N29            4.8090     5.0949     4.8826 N.1     
  30 H30           -3.2117    -0.7043     0.0297 H       
  31 H31           -1.3188     3.1277     0.0370 H       
  32 H32            0.7445     3.7627     1.9611 H       
  33 H33            5.0675    -0.5149     1.7734 H       
  34 H34            4.1275     3.6430     1.8019 H       
  35 H35            5.7045     1.7672     5.3224 H       
  36 H36            2.8913     5.8921    -1.8817 H       
  37 H37            2.5013     3.4666    -1.9499 H       
  38 H38           -4.4801     1.3601     0.0530 H       
  39 H39           -3.7409     2.8688     0.0541 H       
@<TRIPOS>BOND
   1    1    2 ar
   2    1    7 1
   3    1    6 ar
   4    2    3 ar
   5    2    9 1
   6    3    4 ar
   7    4    5 ar
   8    4   30 1
   9    5    6 ar
  10    5   25 1
  11    6   31 1
  12    7    8 2
  13    7   10 1
  14    8    9 1
  15    8   12 1
  16   10   11 ar
  17   10   24 ar
  18   11   21 ar
  19   11   32 1
  20   12   13 2
  21   12   14 2
  22   12   15 1
  23   15   16 ar
  24   15   17 ar
  25   16   20 ar
  26   16   33 1
  27   17   18 ar
  28   17   34 1
  29   18   19 ar
  30   18   28 1
  31   19   20 ar
  32   19   35 1
  33   20   26 1
  34   21   22 ar
  35   21   27 1
  36   22   23 ar
  37   23   24 ar
  38   23   36 1
  39   24   37 1
  40   25   38 1
  41   25   39 1
  42   28   29 3

#	End of record

