#	Name: ASD05143081
#	Creating user name:	WinNT
#	Creation time:	15. 06. 2019 20:57

#	Modifying user name:	WinNT
#	Modification time:	15. 06. 2019 20:57

#	Program:	/corina/corina34_cracker 3.40 0067  02.08.2006

@<TRIPOS>MOLECULE
ASD05143081
 144  147    0    0    0
SMALL
NO_CHARGES


@<TRIPOS>ATOM
   1 C1            -2.1086     5.3958     7.5316 C.2     
   2 C2            -1.6236     4.6575     8.7526 C.3     
   3 N3            -1.2205     5.9319     6.6712 N.am    
   4 O4            -3.2981     5.5031     7.3205 O.2     
   5 C5            -1.6921     6.6495     5.4842 C.3     
   6 C6            -2.5252     5.7055     4.6150 C.3     
   7 C7            -2.5400     7.8207     5.9091 C.2     
   8 C8            -1.6330     4.5829     4.0814 C.3     
   9 C9            -2.4661     3.6389     3.2121 C.3     
  10 N10           -1.6118     2.5640     2.7012 N.pl3   
  11 C11           -2.1441     1.5892     1.8908 C.2     
  12 N12           -1.3424     0.5805     1.4114 N.pl3   
  13 N13           -3.4087     1.6215     1.5770 N.2     
  14 O14           -3.0331     7.8421     7.0170 O.2     
  15 N15           -2.7503     8.8443     5.0580 N.am    
  16 C16           -3.5745     9.9828     5.4711 C.3     
  17 C17           -2.6718    11.1740     5.7984 C.3     
  18 C18           -1.5160    10.7098     6.6868 C.3     
  19 C19           -0.3746    10.2402     5.8223 C.2     
  20 N20            0.8924    10.6527     6.1244 N.am    
  21 C21            1.9560    10.1412     5.2303 C.3     
  22 C22            2.1066    11.1014     4.0487 C.3     
  23 C23            2.7705    10.3707     2.8798 C.3     
  24 C24            3.7292    11.3221     2.1610 C.3     
  25 N25            3.6781    11.0446     0.7115 N.am    
  26 C26            5.1315    11.1041     2.6678 C.2     
  27 N27            5.5187    11.6528     3.8363 N.am    
  28 O28            5.9117    10.4348     2.0242 O.2     
  29 C29            2.8522    11.8324    -0.0298 C.2     
  30 O30            2.2080    12.7143     0.4978 O.2     
  31 C31            2.7485    11.5955    -1.5144 C.3     
  32 N32            1.5340    12.2781    -2.0168 N.am    
  33 C33            3.9845    12.1655    -2.2133 C.3     
  34 C34            0.4810    11.4584    -2.3101 C.2     
  35 O35            0.5726    10.2581    -2.1625 O.2     
  36 C36           -0.7966    12.0740    -2.8198 C.3     
  37 N37           -1.9235    11.1810    -2.4841 N.am    
  38 C38           -1.0083    13.4373    -2.1584 C.3     
  39 C39           -3.0283    11.7692    -1.9485 C.2     
  40 O40           -3.0579    12.9672    -1.7616 O.2     
  41 C41           -4.2141    10.9104    -1.5918 C.3     
  42 C42            3.9369    11.8197    -3.6793 C.2     
  43 C43            3.2390    12.5665    -4.7286 C.ar    
  44 C44            3.4773    11.8686    -5.9264 C.ar    
  45 N45            4.2624    10.7816    -5.6139 N.pl3   
  46 C46            4.5308    10.7720    -4.2722 C.2     
  47 C47            2.4621    13.7267    -4.7408 C.ar    
  48 C48            1.9367    14.1786    -5.9183 C.ar    
  49 C49            2.1686    13.4933    -7.1031 C.ar    
  50 C50            2.9327    12.3472    -7.1139 C.ar    
  51 N51           -4.8003    11.4120    -0.3280 N.am    
  52 C52           -3.7610     9.4607    -1.4076 C.3     
  53 C53           -4.9595     8.5918    -1.1254 C.ar    
  54 C54           -5.9885     8.5144    -2.0454 C.ar    
  55 C55           -7.0878     7.7176    -1.7880 C.ar    
  56 C56           -7.1585     6.9965    -0.6081 C.ar    
  57 C57           -6.1273     7.0747     0.3126 C.ar    
  58 C58           -5.0265     7.8681     0.0506 C.ar    
  59 C59           -4.5125    10.3563     4.3520 C.2     
  60 O60           -5.7108    10.2244     4.4839 O.2     
  61 C61           -1.0189    13.2701    -0.6376 C.3     
  62 C62           -1.3773    14.6045     0.0197 C.3     
  63 N63           -1.3875    14.4444     1.4759 N.pl3   
  64 C64           -1.6851    15.5167     2.2832 C.2     
  65 N65           -1.6947    15.3664     3.6498 N.pl3   
  66 N66           -1.9583    16.6756     1.7531 N.2     
  67 N67           -3.9951    10.8435     3.1908 N.am    
  68 C68           -4.9625    11.1924     2.1313 C.3     
  69 C69           -4.4074    10.7515     0.8015 C.2     
  70 O70           -3.6258     9.8264     0.7351 O.2     
  71 O71           -0.5768     9.5090     4.8760 O.2     
  72 F72           -8.2329     6.2175    -0.3552 F       
  73 C73           -5.1843    12.7062     2.1178 C.3     
  74 C74           -5.8380    13.1296     3.4079 C.2     
  75 O75           -6.1007    12.3021     4.2547 O.2     
  76 N76           -6.1308    14.4279     3.6206 N.am    
  77 H77           -1.5181     5.3569     9.5819 H       
  78 H78           -2.3435     3.8838     9.0192 H       
  79 H79           -0.6584     4.1980     8.5397 H       
  80 H80           -0.2691     5.8426     6.8379 H       
  81 H81           -0.8361     7.0090     4.9131 H       
  82 H82           -3.3301     5.2771     5.2122 H       
  83 H83           -2.9493     6.2611     3.7786 H       
  84 H84           -0.8280     5.0113     3.4842 H       
  85 H85           -1.2088     4.0273     4.9178 H       
  86 H86           -3.2710     3.2105     3.8093 H       
  87 H87           -2.8903     4.1945     2.3758 H       
  88 H88           -0.6706     2.5400     2.9348 H       
  89 H89           -0.4012     0.5565     1.6449 H       
  90 H90           -1.7179    -0.1072     0.8396 H       
  91 H91           -3.7843     0.9338     1.0053 H       
  92 H92           -2.3559     8.8272     4.1720 H       
  93 H93           -4.1526     9.7114     6.3544 H       
  94 H94           -2.2740    11.5930     4.8742 H       
  95 H95           -3.2501    11.9347     6.3227 H       
  96 H96           -1.1819    11.5388     7.3108 H       
  97 H97           -1.8522     9.8900     7.3215 H       
  98 H98            1.0819    11.2402     6.8726 H       
  99 H99            2.8972    10.0838     5.7771 H       
 100 H100           1.6819     9.1516     4.8646 H       
 101 H101           1.1232    11.4582     3.7427 H       
 102 H102           2.7246    11.9488     4.3455 H       
 103 H103           3.3257     9.5117     3.2566 H       
 104 H104           2.0051    10.0307     2.1821 H       
 105 H105           3.4279    12.3531     2.3463 H       
 106 H106           4.2056    10.3372     0.3086 H       
 107 H107           4.8946    12.1881     4.3511 H       
 108 H108           6.4213    11.5125     4.1626 H       
 109 H109           2.6747    10.5258    -1.7101 H       
 110 H110           1.4893    13.2404    -2.1302 H       
 111 H111           4.0009    13.2491    -2.0959 H       
 112 H112           4.8830    11.7382    -1.7681 H       
 113 H113          -0.7371    12.1961    -3.9014 H       
 114 H114          -1.8788    10.2241    -2.6370 H       
 115 H115          -0.1993    14.1094    -2.4444 H       
 116 H116          -1.9606    13.8555    -2.4846 H       
 117 H117          -4.9577    10.9652    -2.3869 H       
 118 H118           4.5809    10.1228    -6.2506 H       
 119 H119           5.1259    10.0275    -3.7643 H       
 120 H120           2.2769    14.2646    -3.8229 H       
 121 H121           1.3359    15.0760    -5.9273 H       
 122 H122           1.7462    13.8628    -8.0259 H       
 123 H123           3.1077    11.8213    -8.0408 H       
 124 H124          -5.4200    12.1579    -0.3037 H       
 125 H125          -3.2680     9.1158    -2.3165 H       
 126 H126          -3.0643     9.4013    -0.5714 H       
 127 H127          -5.9333     9.0773    -2.9655 H       
 128 H128          -7.8917     7.6576    -2.5067 H       
 129 H129          -6.1813     6.5127     1.2332 H       
 130 H130          -4.2220     7.9293     0.7686 H       
 131 H131          -1.7577    12.5183    -0.3599 H       
 132 H132          -0.0325    12.9522    -0.3001 H       
 133 H133          -0.6385    15.3563    -0.2580 H       
 134 H134          -2.3638    14.9224    -0.3178 H       
 135 H135          -1.1842    13.5819     1.8704 H       
 136 H136          -1.4915    14.5039     4.0444 H       
 137 H137          -1.9047    16.1230     4.2195 H       
 138 H138          -2.1683    17.4322     2.3227 H       
 139 H139          -3.0398    10.9559     3.0660 H       
 140 H140          -5.9085    10.6844     2.3187 H       
 141 H141          -4.2250    13.2130     2.0131 H       
 142 H142          -5.8288    12.9715     1.2797 H       
 143 H143          -5.9207    15.0897     2.9433 H       
 144 H144          -6.5516    14.7004     4.4510 H       
@<TRIPOS>BOND
   1    1    2 1
   2    1    3 am
   3    1    4 2
   4    2   77 1
   5    2   78 1
   6    2   79 1
   7    3    5 1
   8    3   80 1
   9    5    6 1
  10    5    7 1
  11    5   81 1
  12    6    8 1
  13    6   82 1
  14    6   83 1
  15    7   14 2
  16    7   15 am
  17    8    9 1
  18    8   84 1
  19    8   85 1
  20    9   10 1
  21    9   86 1
  22    9   87 1
  23   10   11 1
  24   10   88 1
  25   11   12 1
  26   11   13 2
  27   12   89 1
  28   12   90 1
  29   13   91 1
  30   15   16 1
  31   15   92 1
  32   16   17 1
  33   16   59 1
  34   16   93 1
  35   17   18 1
  36   17   94 1
  37   17   95 1
  38   18   19 1
  39   18   96 1
  40   18   97 1
  41   19   20 am
  42   19   71 2
  43   20   21 1
  44   20   98 1
  45   21   22 1
  46   21   99 1
  47   21  100 1
  48   22   23 1
  49   22  101 1
  50   22  102 1
  51   23   24 1
  52   23  103 1
  53   23  104 1
  54   24   25 1
  55   24   26 1
  56   24  105 1
  57   25   29 am
  58   25  106 1
  59   26   27 am
  60   26   28 2
  61   27  107 1
  62   27  108 1
  63   29   30 2
  64   29   31 1
  65   31   32 1
  66   31   33 1
  67   31  109 1
  68   32   34 am
  69   32  110 1
  70   33   42 1
  71   33  111 1
  72   33  112 1
  73   34   35 2
  74   34   36 1
  75   36   37 1
  76   36   38 1
  77   36  113 1
  78   37   39 am
  79   37  114 1
  80   38   61 1
  81   38  115 1
  82   38  116 1
  83   39   40 2
  84   39   41 1
  85   41   51 1
  86   41   52 1
  87   41  117 1
  88   42   43 1
  89   42   46 2
  90   43   44 ar
  91   43   47 ar
  92   44   45 1
  93   44   50 ar
  94   45   46 1
  95   45  118 1
  96   46  119 1
  97   47   48 ar
  98   47  120 1
  99   48   49 ar
 100   48  121 1
 101   49   50 ar
 102   49  122 1
 103   50  123 1
 104   51   69 am
 105   51  124 1
 106   52   53 1
 107   52  125 1
 108   52  126 1
 109   53   54 ar
 110   53   58 ar
 111   54   55 ar
 112   54  127 1
 113   55   56 ar
 114   55  128 1
 115   56   57 ar
 116   56   72 1
 117   57   58 ar
 118   57  129 1
 119   58  130 1
 120   59   60 2
 121   59   67 am
 122   61   62 1
 123   61  131 1
 124   61  132 1
 125   62   63 1
 126   62  133 1
 127   62  134 1
 128   63   64 1
 129   63  135 1
 130   64   65 1
 131   64   66 2
 132   65  136 1
 133   65  137 1
 134   66  138 1
 135   67   68 1
 136   67  139 1
 137   68   69 1
 138   68   73 1
 139   68  140 1
 140   69   70 2
 141   73   74 1
 142   73  141 1
 143   73  142 1
 144   74   75 2
 145   74   76 am
 146   76  143 1
 147   76  144 1

#	End of record

