#	Name: ASD03200091
#	Creating user name:	WinNT
#	Creation time:	15. 06. 2019 20:34

#	Modifying user name:	WinNT
#	Modification time:	15. 06. 2019 20:34

#	Program:	/corina/corina34_cracker 3.40 0067  02.08.2006

@<TRIPOS>MOLECULE
ASD03200091
  32   34    0    0    0
SMALL
NO_CHARGES


@<TRIPOS>ATOM
   1 C1            -0.0167     1.3781     0.0096 C.ar    
   2 C2             0.0021    -0.0041     0.0020 C.ar    
   3 C3             1.1709     2.0855     0.0021 C.ar    
   4 C4             2.3773     1.4107    -0.0131 C.ar    
   5 C5             2.3960     0.0285    -0.0203 C.ar    
   6 C6             1.2084    -0.6789    -0.0132 C.ar    
   7 C7             2.4342    -4.8754    -0.1154 C.3     
   8 C8             1.2289    -2.1857    -0.0215 C.3     
   9 C9             1.9452    -2.6864    -1.2806 C.3     
  10 C10            1.8269    -4.2033    -1.3316 C.3     
  11 C11            1.9927    -2.6965     1.1948 C.3     
  12 C12            2.1369    -4.1898     1.2108 C.3     
  13 C13            0.8854    -4.8937     1.6889 C.2     
  14 O14            0.0903    -4.4721     2.5011 O.2     
  15 N15            0.8178    -6.0744     1.0453 N.am    
  16 C16            1.7372    -6.2212     0.0756 C.2     
  17 O17            1.9710    -7.2400    -0.5385 O.2     
  18 H18           -0.9592     1.9054     0.0170 H       
  19 H19           -0.9258    -0.5567     0.0083 H       
  20 H20            1.1563     3.1654     0.0077 H       
  21 H21            3.3051     1.9634    -0.0197 H       
  22 H22            3.3385    -0.4987    -0.0322 H       
  23 H23            3.5081    -5.0150    -0.2400 H       
  24 H24            0.2081    -2.5675    -0.0026 H       
  25 H25            1.4781    -2.2526    -2.1648 H       
  26 H26            2.9968    -2.4021    -1.2414 H       
  27 H27            2.3344    -4.5665    -2.2252 H       
  28 H28            0.7726    -4.4727    -1.3934 H       
  29 H29            2.9860    -2.2479     1.1993 H       
  30 H30            1.4654    -2.3852     2.0966 H       
  31 H31            2.9342    -4.4463     1.9084 H       
  32 H32            0.1644    -6.7579     1.2620 H       
@<TRIPOS>BOND
   1    1    2 ar
   2    1    3 ar
   3    1   18 1
   4    2    6 ar
   5    2   19 1
   6    3    4 ar
   7    3   20 1
   8    4    5 ar
   9    4   21 1
  10    5   22 1
  11    5    6 ar
  12    6    8 1
  13    7   12 1
  14    7   16 1
  15    7   23 1
  16    7   10 1
  17    8    9 1
  18    8   11 1
  19    8   24 1
  20    9   10 1
  21    9   25 1
  22    9   26 1
  23   10   27 1
  24   10   28 1
  25   11   12 1
  26   11   29 1
  27   11   30 1
  28   12   13 1
  29   12   31 1
  30   13   15 am
  31   13   14 2
  32   15   32 1
  33   15   16 am
  34   16   17 2

#	End of record

