#	Name: ASD03330909
#	Creating user name:	WinNT
#	Creation time:	15. 06. 2019 20:38

#	Modifying user name:	WinNT
#	Modification time:	15. 06. 2019 20:38

#	Program:	/corina/corina34_cracker 3.40 0067  02.08.2006

@<TRIPOS>MOLECULE
ASD03330909
  57   59    0    0    0
SMALL
NO_CHARGES


@<TRIPOS>ATOM
   1 N1             0.4411     0.9374    -0.2641 N.pl3   
   2 C2             0.3276    -0.4179    -0.2055 C.2     
   3 C3             1.4749    -1.3941    -0.1846 C.3     
   4 N4             2.4710    -0.9464     0.8012 N.3     
   5 C5             3.4467    -0.0387     0.1949 C.3     
   6 C6             2.7976     0.8151    -0.8906 C.3     
   7 C7             1.6998     1.6880    -0.2764 C.3     
   8 C8            -0.8243     1.4526    -0.2963 C.2     
   9 N9            -1.6823     0.4572    -0.2416 N.2     
  10 C10           -1.0017    -0.7093    -0.1821 C.2     
  11 C11           -1.5935    -2.0564    -0.1063 C.2     
  12 O12           -0.8732    -3.0353    -0.0580 O.2     
  13 N13           -2.9331    -2.2040    -0.0905 N.am    
  14 C14            3.1392    -2.0924     1.4322 C.3     
  15 C15           -4.9061    -3.5181    -0.6097 C.2     
  16 C16           -3.5216    -3.5435    -0.0152 C.3     
  17 C17           -3.6029    -3.9833     1.4480 C.3     
  18 C18           -4.3811    -2.9396     2.2518 C.3     
  19 O19           -5.5595    -2.4967    -0.5816 O.2     
  20 N20           -5.4183    -4.6304    -1.1727 N.am    
  21 C21           -6.8027    -4.6380    -1.6517 C.3     
  22 C22           -4.3189    -5.3326     1.5359 C.3     
  23 C23           -2.1899    -4.1175     2.0194 C.3     
  24 C24           -1.1688     2.8806    -0.3780 C.2     
  25 C25           -2.4333     3.3850    -0.4096 C.2     
  26 C26           -2.4967     4.7598    -0.4871 C.2     
  27 C27           -1.3143     5.3828    -0.5190 C.2     
  28 S28           -0.0120     4.2039    -0.4423 S.3     
  29 Cl29          -3.8479     2.3801    -0.3573 Cl      
  30 H30            1.1074    -2.3823     0.0918 H       
  31 H31            1.9339    -1.4380    -1.1722 H       
  32 H32            3.8566     0.6135     0.9661 H       
  33 H33            4.2546    -0.6235    -0.2449 H       
  34 H34            3.5528     1.4527    -1.3501 H       
  35 H35            2.3619     0.1659    -1.6501 H       
  36 H36            1.5785     2.5933    -0.8712 H       
  37 H37            1.9748     1.9551     0.7440 H       
  38 H38           -3.5075    -1.4234    -0.1290 H       
  39 H39            3.5851    -2.7220     0.6622 H       
  40 H40            3.9186    -1.7335     2.1044 H       
  41 H41            2.4098    -2.6719     1.9980 H       
  42 H42           -2.9001    -4.2452    -0.5715 H       
  43 H43           -5.3877    -2.8440     1.8446 H       
  44 H44           -4.4390    -3.2530     3.2941 H       
  45 H45           -3.8710    -1.9784     2.1891 H       
  46 H46           -4.8702    -5.4259    -1.2607 H       
  47 H47           -7.4760    -4.4297    -0.8202 H       
  48 H48           -6.9259    -3.8738    -2.4192 H       
  49 H49           -7.0363    -5.6161    -2.0722 H       
  50 H50           -3.7387    -6.0871     1.0047 H       
  51 H51           -4.4207    -5.6224     2.5818 H       
  52 H52           -5.3073    -5.2495     1.0840 H       
  53 H53           -1.6799    -3.1563     1.9568 H       
  54 H54           -2.2479    -4.4309     3.0618 H       
  55 H55           -1.6355    -4.8611     1.4468 H       
  56 H56           -3.4341     5.2952    -0.5199 H       
  57 H57           -1.1790     6.4526    -0.5788 H       
@<TRIPOS>BOND
   1    1    2 1
   2    1    7 1
   3    1    8 1
   4    2    3 1
   5    2   10 2
   6    3    4 1
   7    3   30 1
   8    3   31 1
   9    4    5 1
  10    4   14 1
  11    5    6 1
  12    5   32 1
  13    5   33 1
  14    6    7 1
  15    6   34 1
  16    6   35 1
  17    7   36 1
  18    7   37 1
  19    8    9 2
  20    8   24 1
  21    9   10 1
  22   10   11 1
  23   11   12 2
  24   11   13 am
  25   13   16 1
  26   13   38 1
  27   14   39 1
  28   14   40 1
  29   14   41 1
  30   15   19 2
  31   15   20 am
  32   15   16 1
  33   16   17 1
  34   16   42 1
  35   17   18 1
  36   17   22 1
  37   17   23 1
  38   18   43 1
  39   18   44 1
  40   18   45 1
  41   20   21 1
  42   20   46 1
  43   21   47 1
  44   21   48 1
  45   21   49 1
  46   22   50 1
  47   22   51 1
  48   22   52 1
  49   23   53 1
  50   23   54 1
  51   23   55 1
  52   24   25 2
  53   24   28 1
  54   25   26 1
  55   25   29 1
  56   26   27 2
  57   26   56 1
  58   27   28 1
  59   27   57 1

#	End of record

