#	Name: ASD03331093
#	Creating user name:	WinNT
#	Creation time:	15. 06. 2019 20:38

#	Modifying user name:	WinNT
#	Modification time:	15. 06. 2019 20:38

#	Program:	/corina/corina34_cracker 3.40 0067  02.08.2006

@<TRIPOS>MOLECULE
ASD03331093
  61   64    0    0    0
SMALL
NO_CHARGES


@<TRIPOS>ATOM
   1 N1            -0.8737     1.7435    -0.4488 N.pl3   
   2 C2            -0.6927     0.4227    -0.1802 C.2     
   3 C3             0.6231    -0.2341     0.1463 C.3     
   4 N4             1.3240     0.5684     1.1608 N.3     
   5 C5             2.1596     1.5971     0.5388 C.3     
   6 C6             1.5208     2.1159    -0.7464 C.3     
   7 C7             0.1731     2.7691    -0.4284 C.3     
   8 C8            -2.1977     1.9268    -0.7241 C.2     
   9 N9            -2.8123     0.7723    -0.6128 N.2     
  10 C10           -1.9114    -0.1767    -0.2752 C.2     
  11 C11           -2.1969    -1.6047    -0.0508 C.2     
  12 O12           -1.2964    -2.3650     0.2498 O.2     
  13 N13           -3.4559    -2.0685    -0.1786 N.am    
  14 C14           -2.8337     3.2114    -1.0868 C.ar    
  15 C15           -3.7092     3.2782    -2.1741 C.ar    
  16 C16           -4.3011     4.4811    -2.5083 C.ar    
  17 C17           -4.0278     5.6193    -1.7681 C.ar    
  18 C18           -3.1588     5.5585    -0.6876 C.ar    
  19 C19           -2.5665     4.3601    -0.3411 C.ar    
  20 F20           -2.8958     6.6728     0.0297 F       
  21 F21           -4.6089     6.7932    -2.0993 F       
  22 F22           -3.9758     2.1687    -2.8974 F       
  23 C23           -4.9819    -3.8776    -0.7148 C.2     
  24 C24           -3.7398    -3.4883     0.0445 C.3     
  25 C25           -3.9565    -3.7364     1.5386 C.3     
  26 C26           -4.3866    -5.1883     1.7573 C.3     
  27 O27           -5.8605    -3.0620    -0.8992 O.2     
  28 C28           -2.6526    -3.4714     2.2940 C.3     
  29 C29           -5.0470    -2.7976     2.0586 C.3     
  30 N30           -5.1166    -5.1320    -1.1889 N.am    
  31 C31           -6.1693    -5.8984    -1.8725 C.3     
  32 C32           -5.5638    -7.1703    -1.2628 C.3     
  33 C33           -4.2731    -6.3348    -1.2561 C.3     
  34 F34           -6.0541    -7.4865     0.0087 F       
  35 F35           -5.5312    -8.2645    -2.1339 F       
  36 H36            0.4434    -1.2365     0.5349 H       
  37 H37            1.2332    -0.2956    -0.7549 H       
  38 H38            0.6712     0.9778     1.8122 H       
  39 H39            2.2858     2.4257     1.2357 H       
  40 H40            3.1367     1.1731     0.3072 H       
  41 H41            2.1801     2.8513    -1.2075 H       
  42 H42            1.3675     1.2855    -1.4356 H       
  43 H43           -0.0482     3.5307    -1.1762 H       
  44 H44            0.2145     3.2279     0.5595 H       
  45 H45           -4.1741    -1.4621    -0.4183 H       
  46 H46           -4.9778     4.5340    -3.3483 H       
  47 H47           -1.8939     4.3131     0.5026 H       
  48 H48           -2.8981    -4.0863    -0.3048 H       
  49 H49           -3.5976    -5.8568     1.4128 H       
  50 H50           -4.5684    -5.3574     2.8187 H       
  51 H51           -5.3002    -5.3851     1.1963 H       
  52 H52           -2.3462    -2.4371     2.1382 H       
  53 H53           -2.8070    -3.6482     3.3584 H       
  54 H54           -1.8757    -4.1403     1.9236 H       
  55 H55           -5.9759    -2.9864     1.5204 H       
  56 H56           -5.2014    -2.9744     3.1230 H       
  57 H57           -4.7406    -1.7632     1.9027 H       
  58 H58           -7.1727    -5.6777    -1.5085 H       
  59 H59           -6.0970    -5.8611    -2.9595 H       
  60 H60           -3.7009    -6.4126    -2.1805 H       
  61 H61           -3.6610    -6.4860    -0.3669 H       
@<TRIPOS>BOND
   1    1    2 1
   2    1    7 1
   3    1    8 1
   4    2    3 1
   5    2   10 2
   6    3    4 1
   7    3   36 1
   8    3   37 1
   9    4    5 1
  10    4   38 1
  11    5    6 1
  12    5   39 1
  13    5   40 1
  14    6    7 1
  15    6   41 1
  16    6   42 1
  17    7   43 1
  18    7   44 1
  19    8    9 2
  20    8   14 1
  21    9   10 1
  22   10   11 1
  23   11   12 2
  24   11   13 am
  25   13   24 1
  26   13   45 1
  27   14   15 ar
  28   14   19 ar
  29   15   16 ar
  30   15   22 1
  31   16   17 ar
  32   16   46 1
  33   17   18 ar
  34   17   21 1
  35   18   19 ar
  36   18   20 1
  37   19   47 1
  38   23   27 2
  39   23   30 am
  40   23   24 1
  41   24   25 1
  42   24   48 1
  43   25   26 1
  44   25   28 1
  45   25   29 1
  46   26   49 1
  47   26   50 1
  48   26   51 1
  49   28   52 1
  50   28   53 1
  51   28   54 1
  52   29   55 1
  53   29   56 1
  54   29   57 1
  55   30   31 1
  56   30   33 1
  57   31   32 1
  58   31   58 1
  59   31   59 1
  60   32   33 1
  61   32   34 1
  62   32   35 1
  63   33   60 1
  64   33   61 1

#	End of record

