#	Name: ASD01910975
#	Creating user name:	WinNT
#	Creation time:	15. 06. 2019 19:56

#	Modifying user name:	WinNT
#	Modification time:	15. 06. 2019 19:56

#	Program:	/corina/corina34_cracker 3.40 0067  02.08.2006

@<TRIPOS>MOLECULE
ASD01910975
  54   57    0    0    0
SMALL
NO_CHARGES


@<TRIPOS>ATOM
   1 N1             0.1424     1.3738    -0.1997 N.3     
   2 C2             0.0810    -0.0919    -0.1232 C.3     
   3 C3            -1.3650    -0.5263     0.1387 C.3     
   4 N4            -2.2279     0.0797    -0.8868 N.am    
   5 C5            -2.1229     1.5285    -1.1170 C.3     
   6 C6            -0.6471     1.8820    -1.3294 C.3     
   7 C7            -3.0915    -0.6728    -1.5969 C.2     
   8 C8            -4.0350    -0.0292    -2.5325 C.ar    
   9 C9            -4.3090    -0.6233    -3.7685 C.ar    
  10 C10           -5.1887    -0.0270    -4.6457 C.ar    
  11 C11           -5.8092     1.1675    -4.3097 C.ar    
  12 C12           -5.5417     1.7740    -3.0712 C.ar    
  13 C13           -4.6574     1.1679    -2.1814 C.ar    
  14 C14           -6.1803     3.0072    -2.7218 C.1     
  15 O15           -3.0936    -1.8817    -1.4672 O.2     
  16 C16           -6.7039     4.0182    -2.4354 C.1     
  17 C17           -7.3425     5.2513    -2.0861 C.ar    
  18 N18           -7.0840     5.8192    -0.9119 N.ar    
  19 C19           -7.6513     6.9530    -0.5543 C.ar    
  20 C20           -8.5423     7.5974    -1.3926 C.ar    
  21 C21           -8.8416     7.0400    -2.6289 C.ar    
  22 C22           -8.2288     5.8526    -2.9842 C.ar    
  23 C23            1.4545     1.8126    -0.2735 C.ar    
  24 N24            2.4595     0.9414    -0.2691 N.ar    
  25 C25            3.7088     1.3544    -0.3397 C.ar    
  26 N26            4.0148     2.6336    -0.4168 N.ar    
  27 C27            3.0680     3.5632    -0.4265 C.ar    
  28 C28            1.7424     3.1756    -0.3596 C.ar    
  29 O29           -6.6738     1.7500    -5.1771 O.3     
  30 C30           -6.8984     1.0784    -6.4183 C.3     
  31 C31            4.8187     0.3350    -0.3314 C.3     
  32 Cl32           3.4881     5.2445    -0.5281 Cl      
  33 H33            0.4245    -0.5200    -1.0649 H       
  34 H34            0.7184    -0.4407     0.6893 H       
  35 H35           -1.4369    -1.6124     0.0825 H       
  36 H36           -1.6762    -0.1865     1.1265 H       
  37 H37           -2.6959     1.8009    -2.0034 H       
  38 H38           -2.5070     2.0659    -0.2499 H       
  39 H39           -0.5377     2.9647    -1.3918 H       
  40 H40           -0.2934     1.4265    -2.2544 H       
  41 H41           -3.8289    -1.5528    -4.0368 H       
  42 H42           -5.3958    -0.4912    -5.5986 H       
  43 H43           -4.4472     1.6288    -1.2276 H       
  44 H44           -7.4175     7.3852     0.4074 H       
  45 H45           -9.0018     8.5262    -1.0884 H       
  46 H46           -9.5346     7.5257    -3.3000 H       
  47 H47           -8.4385     5.3918    -3.9382 H       
  48 H48            0.9500     3.9094    -0.3656 H       
  49 H49           -5.9562     0.9896    -6.9591 H       
  50 H50           -7.3019     0.0843    -6.2257 H       
  51 H51           -7.6085     1.6491    -7.0168 H       
  52 H52            5.0457     0.0368    -1.3549 H       
  53 H53            5.7076     0.7694     0.1261 H       
  54 H54            4.5056    -0.5384     0.2406 H       
@<TRIPOS>BOND
   1    1    2 1
   2    1   23 1
   3    1    6 1
   4    2    3 1
   5    2   33 1
   6    2   34 1
   7    3    4 1
   8    3   35 1
   9    3   36 1
  10    4    5 1
  11    4    7 am
  12    5    6 1
  13    5   37 1
  14    5   38 1
  15    6   39 1
  16    6   40 1
  17    7    8 1
  18    7   15 2
  19    8    9 ar
  20    8   13 ar
  21    9   10 ar
  22    9   41 1
  23   10   11 ar
  24   10   42 1
  25   11   12 ar
  26   11   29 1
  27   12   13 ar
  28   12   14 1
  29   13   43 1
  30   14   16 3
  31   16   17 1
  32   17   18 ar
  33   17   22 ar
  34   18   19 ar
  35   19   20 ar
  36   19   44 1
  37   20   21 ar
  38   20   45 1
  39   21   22 ar
  40   21   46 1
  41   22   47 1
  42   23   24 ar
  43   23   28 ar
  44   24   25 ar
  45   25   26 ar
  46   25   31 1
  47   26   27 ar
  48   27   28 ar
  49   27   32 1
  50   28   48 1
  51   29   30 1
  52   30   49 1
  53   30   50 1
  54   30   51 1
  55   31   52 1
  56   31   53 1
  57   31   54 1

#	End of record

