#	Name: ASD03090089
#	Creating user name:	WinNT
#	Creation time:	15. 06. 2019 20:28

#	Modifying user name:	WinNT
#	Modification time:	15. 06. 2019 20:28

#	Program:	/corina/corina34_cracker 3.40 0067  02.08.2006

@<TRIPOS>MOLECULE
ASD03090089
  43   44    0    0    0
SMALL
NO_CHARGES


@<TRIPOS>ATOM
   1 C1             0.1195     1.6330     0.0566 C.2     
   2 C2             0.2176     0.1630     0.1230 C.ar    
   3 C3             1.4712    -0.4566     0.1123 C.ar    
   4 C4             1.5594    -1.8232     0.1747 C.ar    
   5 C5             0.4018    -2.5946     0.2486 C.ar    
   6 C6            -0.8483    -1.9801     0.2594 C.ar    
   7 C7            -0.9425    -0.6136     0.2027 C.ar    
   8 O8             1.1292     2.3076    -0.0075 O.2     
   9 N9            -1.0896     2.2286     0.0614 N.am    
  10 S10            0.5191    -4.3509     0.3280 S.3     
  11 C11           -1.2164    -4.8725     0.4087 C.3     
  12 F12           -1.8901    -4.4297    -0.7346 F       
  13 F13           -1.2811    -6.2683     0.4769 F       
  14 F14           -1.8165    -4.3217     1.5462 F       
  15 C15           -1.1871     3.6888    -0.0046 C.3     
  16 C16           -2.6377     4.0968     0.0156 C.ar    
  17 C17           -3.2694     4.3398     1.2197 C.ar    
  18 C18           -4.6059     4.7157     1.2374 C.ar    
  19 C19           -5.3035     4.8461     0.0435 C.ar    
  20 C20           -4.6662     4.6018    -1.1570 C.ar    
  21 C21           -3.3333     4.2331    -1.1715 C.ar    
  22 N22           -5.2489     4.9620     2.4556 N.am    
  23 C23           -4.5699     4.6563     3.7172 C.3     
  24 C24           -6.4928     5.4806     2.4682 C.2     
  25 O25           -7.0107     5.8397     1.4319 O.2     
  26 C26           -7.2403     5.6144     3.7699 C.3     
  27 H27            2.3690     0.1410     0.0547 H       
  28 H28            2.5273    -2.3023     0.1661 H       
  29 H29           -1.7441    -2.5807     0.3164 H       
  30 H30           -1.9118    -0.1376     0.2153 H       
  31 H31           -1.8952     1.6903     0.1085 H       
  32 H32           -0.6747     4.1263     0.8523 H       
  33 H33           -0.7229     4.0428    -0.9251 H       
  34 H34           -2.7244     4.2371     2.1465 H       
  35 H35           -6.3432     5.1380     0.0539 H       
  36 H36           -5.2080     4.7031    -2.0857 H       
  37 H37           -2.8359     4.0469    -2.1119 H       
  38 H38           -3.9393     5.4979     4.0037 H       
  39 H39           -5.3121     4.4771     4.4951 H       
  40 H40           -3.9531     3.7664     3.5915 H       
  41 H41           -7.0894     6.6153     4.1743 H       
  42 H42           -8.3036     5.4488     3.5970 H       
  43 H43           -6.8683     4.8757     4.4800 H       
@<TRIPOS>BOND
   1    1    2 1
   2    1    8 2
   3    1    9 am
   4    2    3 ar
   5    2    7 ar
   6    3    4 ar
   7    3   27 1
   8    4    5 ar
   9    4   28 1
  10    5    6 ar
  11    5   10 1
  12    6    7 ar
  13    6   29 1
  14    7   30 1
  15    9   15 1
  16    9   31 1
  17   10   11 1
  18   11   12 1
  19   11   13 1
  20   11   14 1
  21   15   16 1
  22   15   32 1
  23   15   33 1
  24   16   17 ar
  25   16   21 ar
  26   17   18 ar
  27   17   34 1
  28   18   19 ar
  29   18   22 1
  30   19   20 ar
  31   19   35 1
  32   20   21 ar
  33   20   36 1
  34   21   37 1
  35   22   23 1
  36   22   24 am
  37   23   38 1
  38   23   39 1
  39   23   40 1
  40   24   25 2
  41   24   26 1
  42   26   41 1
  43   26   42 1
  44   26   43 1

#	End of record

