#	Name: ASD07930910
#	Creating user name:	WinNT
#	Creation time:	15. 06. 2019 21:13

#	Modifying user name:	WinNT
#	Modification time:	15. 06. 2019 21:13

#	Program:	/corina/corina34_cracker 3.40 0067  02.08.2006

@<TRIPOS>MOLECULE
ASD07930910
  59   63    0    0    0
SMALL
NO_CHARGES


@<TRIPOS>ATOM
   1 C1            -0.0168     1.3889     0.0097 C.ar    
   2 C2             0.0021    -0.0041     0.0020 C.ar    
   3 C3             1.2256    -0.6990    -0.0129 C.ar    
   4 C4             2.4061    -0.0316    -0.0201 C.ar    
   5 C5             2.4242     1.3766    -0.0132 C.ar    
   6 C6             3.6374     2.0842    -0.0204 C.ar    
   7 C7             3.6248     3.4460    -0.0134 C.ar    
   8 C8             2.4241     4.1518     0.0012 C.ar    
   9 C9             1.2288     3.4991     0.0086 C.ar    
  10 C10            1.2033     2.0950     0.0018 C.ar    
  11 C11           -1.2661    -0.7539     0.0101 C.2     
  12 O12           -2.3255    -0.1567     0.0234 O.2     
  13 N13           -1.2522    -2.1015     0.0027 N.am    
  14 C14            3.7028    -0.7993    -0.0352 C.3     
  15 C15            3.8416    -2.0501     2.1329 C.ar    
  16 C16            4.2105    -0.9553     1.3751 C.ar    
  17 C17            5.0539    -0.0012     1.9263 C.ar    
  18 C18            5.4976    -0.1835     3.2252 C.ar    
  19 C19            5.0859    -1.3085     3.9282 C.ar    
  20 N20            4.2806    -2.1965     3.3677 N.ar    
  21 N21            5.5270    -1.5049     5.2404 N.pl3   
  22 N22            6.3768    -0.6559     5.9614 N.2     
  23 C23            6.5605    -1.1723     7.1492 C.2     
  24 C24            5.8356    -2.3669     7.2277 C.2     
  25 C25            5.2034    -2.5499     6.0457 C.2     
  26 C26           -2.5133    -2.8471     0.0108 C.3     
  27 C27           -2.2812    -4.2353     0.6108 C.3     
  28 C28           -3.5982    -5.0140     0.6192 C.3     
  29 C29           -4.1149    -5.1576    -0.8137 C.3     
  30 C30           -4.3470    -3.7694    -1.4137 C.3     
  31 C31           -3.0300    -2.9907    -1.4221 C.3     
  32 O32           -1.7986    -4.1012     1.9491 O.3     
  33 O33           -1.1947     2.0575     0.0189 O.3     
  34 H34            1.2245    -1.7790    -0.0184 H       
  35 H35            4.5763     1.5506    -0.0310 H       
  36 H36            4.5597     3.9867    -0.0190 H       
  37 H37            2.4412     5.2317     0.0072 H       
  38 H38            0.3051     4.0585     0.0203 H       
  39 H39           -0.4073    -2.5778    -0.0079 H       
  40 H40            3.5371    -1.7837    -0.4727 H       
  41 H41            4.4391    -0.2572    -0.6285 H       
  42 H42            3.1818    -2.7933     1.7100 H       
  43 H43            5.3575     0.8636     1.3552 H       
  44 H44            6.1552     0.5391     3.6853 H       
  45 H45            7.1683    -0.7491     7.9352 H       
  46 H46            5.7862    -3.0248     8.0828 H       
  47 H47            4.5600    -3.3782     5.7881 H       
  48 H48           -3.2488    -2.3106     0.6102 H       
  49 H49           -1.5457    -4.7718     0.0114 H       
  50 H50           -3.4329    -6.0029     1.0466 H       
  51 H51           -4.3337    -4.4774     1.2186 H       
  52 H52           -3.3794    -5.6941    -1.4131 H       
  53 H53           -5.0532    -5.7123    -0.8078 H       
  54 H54           -4.7151    -3.8717    -2.4346 H       
  55 H55           -5.0825    -3.2328    -0.8143 H       
  56 H56           -3.1954    -2.0018    -1.8496 H       
  57 H57           -2.2945    -3.5273    -2.0215 H       
  58 H58           -1.6291    -4.9437     2.3924 H       
  59 H59           -1.5326     2.2469     0.9050 H       
@<TRIPOS>BOND
   1    1    2 ar
   2    1   10 ar
   3    1   33 1
   4    2    3 ar
   5    2   11 1
   6    3    4 ar
   7    3   34 1
   8    4    5 ar
   9    4   14 1
  10    5    6 ar
  11    5   10 ar
  12    6    7 ar
  13    6   35 1
  14    7    8 ar
  15    7   36 1
  16    8    9 ar
  17    8   37 1
  18    9   10 ar
  19    9   38 1
  20   11   12 2
  21   11   13 am
  22   13   26 1
  23   13   39 1
  24   14   16 1
  25   14   40 1
  26   14   41 1
  27   15   16 ar
  28   15   20 ar
  29   15   42 1
  30   16   17 ar
  31   17   18 ar
  32   17   43 1
  33   18   19 ar
  34   18   44 1
  35   19   20 ar
  36   19   21 1
  37   21   22 1
  38   21   25 1
  39   22   23 2
  40   23   24 1
  41   23   45 1
  42   24   25 2
  43   24   46 1
  44   25   47 1
  45   26   27 1
  46   26   31 1
  47   26   48 1
  48   27   28 1
  49   27   32 1
  50   27   49 1
  51   28   29 1
  52   28   50 1
  53   28   51 1
  54   29   30 1
  55   29   52 1
  56   29   53 1
  57   30   31 1
  58   30   54 1
  59   30   55 1
  60   31   56 1
  61   31   57 1
  62   32   58 1
  63   33   59 1

#	End of record

