#	Name: ASD05430234
#	Creating user name:	WinNT
#	Creation time:	15. 06. 2019 21:00

#	Modifying user name:	WinNT
#	Modification time:	15. 06. 2019 21:00

#	Program:	/corina/corina34_cracker 3.40 0067  02.08.2006

@<TRIPOS>MOLECULE
ASD05430234
  62   68    0    0    0
SMALL
NO_CHARGES


@<TRIPOS>ATOM
   1 C1            -0.0102     1.3701    -0.1552 C.ar    
   2 C2             0.0203    -0.0143    -0.3187 C.ar    
   3 C3             1.2359    -0.6826    -0.3843 C.ar    
   4 C4             2.4180     0.0192    -0.2882 C.ar    
   5 C5             2.3952     1.4081    -0.1241 C.ar    
   6 C6             1.1713     2.0808    -0.0581 C.ar    
   7 O7             4.8691     0.1430     0.2384 O.3     
   8 C8             4.8303     1.4988     0.0669 C.2     
   9 C9             3.6564     2.1594    -0.0207 C.2     
  10 C10            6.0904    -0.4012     0.7493 C.3     
  11 C11            6.9438     0.5547     1.5933 C.3     
  12 N12            7.1428     1.7871     0.8278 N.pl3   
  13 C13            6.1198     2.2149    -0.0186 C.2     
  14 C14            8.3568     2.5866     0.9302 C.3     
  15 C15            8.6908     3.1759    -0.4402 C.3     
  16 O16            7.5524     3.8453    -0.9744 O.3     
  17 N17            6.3145     3.1848    -0.8497 N.2     
  18 C18            6.0956    -1.8796     1.1399 C.3     
  19 C19            6.8280    -1.4189    -0.1221 C.3     
  20 C20            8.2135     3.6681     1.9555 C.ar    
  21 C21            9.1827     3.4719     2.9436 C.ar    
  22 N22            9.9644     2.3599     2.6817 N.pl3   
  23 C23            9.5261     1.7238     1.4306 C.3     
  24 C24            7.3168     4.7198     2.0090 C.ar    
  25 C25            7.4152     5.5844     3.0918 C.ar    
  26 C26            8.3692     5.4011     4.0745 C.ar    
  27 C27            9.2729     4.3491     4.0287 C.ar    
  28 F28            8.4242     6.2702     5.1074 F       
  29 N29           -1.1795    -0.7336    -0.4167 N.pl3   
  30 C30           -1.5009    -1.6548    -1.3795 C.2     
  31 C31           -2.7405    -2.0989    -1.0962 C.2     
  32 N32           -3.1685    -1.4694     0.0080 N.2     
  33 C33           -2.2401    -0.6533     0.4278 C.2     
  34 C34           -3.5131    -3.1252    -1.8841 C.3     
  35 C35           -1.1586     3.4399     0.0717 C.3     
  36 O36           -1.2021     2.0215    -0.0970 O.3     
  37 H37            1.2548    -1.7550    -0.5107 H       
  38 H38            3.3618    -0.5032    -0.3392 H       
  39 H39            1.1491     3.1532     0.0682 H       
  40 H40            3.6428     3.2393    -0.0149 H       
  41 H41            6.4285     0.7807     2.5268 H       
  42 H42            7.9086     0.0947     1.8071 H       
  43 H43            9.5125     3.8848    -0.3384 H       
  44 H44            8.9889     2.3740    -1.1157 H       
  45 H45            6.7035    -2.1718     1.9962 H       
  46 H46            5.1690    -2.4383     1.0085 H       
  47 H47            6.3830    -1.6743    -1.0838 H       
  48 H48            7.9176    -1.4078    -0.0960 H       
  49 H49           10.6934     2.0473     3.2401 H       
  50 H50            9.1897     0.7048     1.6220 H       
  51 H51           10.3364     1.7249     0.7015 H       
  52 H52            6.5713     4.8630     1.2407 H       
  53 H53            6.7316     6.4171     3.1673 H       
  54 H54           10.0154     4.2126     4.8010 H       
  55 H55           -0.8795    -1.9650    -2.2065 H       
  56 H56           -2.3072    -0.0155     1.2967 H       
  57 H57           -3.2989    -4.1200    -1.4932 H       
  58 H58           -4.5805    -2.9225    -1.7964 H       
  59 H59           -3.2187    -3.0756    -2.9324 H       
  60 H60           -2.1746     3.8335     0.1021 H       
  61 H61           -0.6481     3.6794     1.0045 H       
  62 H62           -0.6199     3.8887    -0.7629 H       
@<TRIPOS>BOND
   1    1    2 ar
   2    1    6 ar
   3    1   36 1
   4    2    3 ar
   5    2   29 1
   6    3    4 ar
   7    3   37 1
   8    4    5 ar
   9    4   38 1
  10    5    6 ar
  11    5    9 1
  12    6   39 1
  13    7    8 1
  14    7   10 1
  15    8    9 2
  16    8   13 1
  17    9   40 1
  18   10   11 1
  19   10   18 1
  20   10   19 1
  21   11   12 1
  22   11   41 1
  23   11   42 1
  24   12   13 1
  25   12   14 1
  26   13   17 2
  27   14   15 1
  28   14   20 1
  29   14   23 1
  30   15   16 1
  31   15   43 1
  32   15   44 1
  33   16   17 1
  34   18   19 1
  35   18   45 1
  36   18   46 1
  37   19   47 1
  38   19   48 1
  39   20   21 ar
  40   20   24 ar
  41   21   22 1
  42   21   27 ar
  43   22   23 1
  44   22   49 1
  45   23   50 1
  46   23   51 1
  47   24   25 ar
  48   24   52 1
  49   25   26 ar
  50   25   53 1
  51   26   27 ar
  52   26   28 1
  53   27   54 1
  54   29   30 1
  55   29   33 1
  56   30   31 2
  57   30   55 1
  58   31   32 1
  59   31   34 1
  60   32   33 2
  61   33   56 1
  62   34   57 1
  63   34   58 1
  64   34   59 1
  65   35   36 1
  66   35   60 1
  67   35   61 1
  68   35   62 1

#	End of record

