#	Name: ASD08178063
#	Creating user name:	WinNT
#	Creation time:	15. 06. 2019 21:18

#	Modifying user name:	WinNT
#	Modification time:	15. 06. 2019 21:18

#	Program:	/corina/corina34_cracker 3.40 0067  02.08.2006

@<TRIPOS>MOLECULE
ASD08178063
  53   56    0    0    0
SMALL
NO_CHARGES


@<TRIPOS>ATOM
   1 N1            -1.1218     2.4054    -1.2604 N.2     
   2 N2            -0.5617     1.2777    -1.3530 N.2     
   3 C3            -0.3923     3.4119    -0.8838 C.2     
   4 S4             1.2066     2.8601    -0.6122 S.3     
   5 C5             0.6993     1.2312    -1.0607 C.2     
   6 N6            -0.8357     4.7208    -0.7274 N.am    
   7 C7            -2.1242     5.0298    -0.9735 C.2     
   8 O8            -2.8745     4.1889    -1.4220 O.2     
   9 C9             1.5756     0.0058    -1.0972 C.3     
  10 C10            2.2015    -0.1324    -2.4865 C.3     
  11 C11            3.8972    -1.6005    -4.2275 C.3     
  12 C12            4.8205    -2.8037    -4.4289 C.3     
  13 C13            5.3529    -2.7978    -5.8387 C.2     
  14 N14            6.4398    -2.2205    -6.2425 N.2     
  15 S15            4.6118    -3.5825    -7.2340 S.3     
  16 C16            5.8950    -3.0091    -8.2135 C.2     
  17 N17            6.7157    -2.3309    -7.4695 N.2     
  18 N18            6.0369    -3.2363    -9.5783 N.am    
  19 C19            7.0961    -2.7288   -10.2393 C.2     
  20 O20            7.8746    -1.9965    -9.6661 O.2     
  21 C21            7.3132    -3.0714   -11.6907 C.3     
  22 C22           -2.6329     6.4200    -0.6914 C.3     
  23 C23           -2.6456     6.8316     0.7821 C.3     
  24 C24            7.9729    -4.4258   -11.9575 C.3     
  25 S25            3.2563    -1.6075    -2.5304 S.3     
  26 F26            9.1332    -4.5398   -11.1842 F       
  27 F27           -1.4338     6.4672     1.3787 F       
  28 F28           -2.8144     8.2171     0.8778 F       
  29 F29           -3.7004     6.1870     1.4373 F       
  30 C30           -2.3308     7.5062    -1.7257 C.3     
  31 C31           -3.7528     6.9573    -1.5847 C.3     
  32 F32            7.0844    -5.4521   -11.6191 F       
  33 F33            8.3045    -4.5241   -13.3131 F       
  34 C34            6.2668    -2.5852   -12.6955 C.3     
  35 C35            7.6452    -1.9230   -12.6456 C.3     
  36 H36           -0.2175     5.4113    -0.4412 H       
  37 H37            2.3645     0.1009    -0.3511 H       
  38 H38            0.9746    -0.8773    -0.8800 H       
  39 H39            1.4126    -0.2275    -3.2326 H       
  40 H40            2.8025     0.7506    -2.7037 H       
  41 H41            4.4557    -0.6807    -4.4011 H       
  42 H42            3.0658    -1.6589    -4.9300 H       
  43 H43            5.6519    -2.7453    -3.7264 H       
  44 H44            4.2620    -3.7234    -4.2553 H       
  45 H45            5.3735    -3.7599   -10.0543 H       
  46 H46           -2.1416     8.5141    -1.3565 H       
  47 H47           -1.7642     7.2152    -2.6103 H       
  48 H48           -4.1215     6.3054    -2.3767 H       
  49 H49           -4.4985     7.6043    -1.1228 H       
  50 H50            6.0487    -3.2300   -13.5468 H       
  51 H51            5.4214    -2.0175   -12.3067 H       
  52 H52            7.7066    -0.9197   -12.2241 H       
  53 H53            8.3340    -2.1323   -13.4641 H       
@<TRIPOS>BOND
   1    1    2 1
   2    1    3 2
   3    2    5 2
   4    3    4 1
   5    3    6 1
   6    4    5 1
   7    5    9 1
   8    6    7 am
   9    6   36 1
  10    7    8 2
  11    7   22 1
  12    9   10 1
  13    9   37 1
  14    9   38 1
  15   10   25 1
  16   10   39 1
  17   10   40 1
  18   11   12 1
  19   11   25 1
  20   11   41 1
  21   11   42 1
  22   12   13 1
  23   12   43 1
  24   12   44 1
  25   13   14 2
  26   13   15 1
  27   14   17 1
  28   15   16 1
  29   16   17 2
  30   16   18 1
  31   18   19 am
  32   18   45 1
  33   19   20 2
  34   19   21 1
  35   21   34 1
  36   21   24 1
  37   21   35 1
  38   22   23 1
  39   22   30 1
  40   22   31 1
  41   23   27 1
  42   23   28 1
  43   23   29 1
  44   24   32 1
  45   24   33 1
  46   24   26 1
  47   30   31 1
  48   30   46 1
  49   30   47 1
  50   31   48 1
  51   31   49 1
  52   34   35 1
  53   34   50 1
  54   34   51 1
  55   35   52 1
  56   35   53 1

#	End of record

