#	Name: ASD01680041
#	Creating user name:	WinNT
#	Creation time:	15. 06. 2019 19:22

#	Modifying user name:	WinNT
#	Modification time:	15. 06. 2019 19:22

#	Program:	/corina/corina34_cracker 3.40 0067  02.08.2006

@<TRIPOS>MOLECULE
ASD01680041
  86   88    0    0    0
SMALL
NO_CHARGES


@<TRIPOS>ATOM
   1 N1            -0.2075     0.3259    -0.7878 N.am    
   2 C2            -0.1485    -1.1421    -0.9096 C.3     
   3 C3             1.2122    -1.5375    -0.2838 C.3     
   4 C4             2.1187    -0.3648    -0.7425 C.3     
   5 C5             1.1643     0.8472    -0.6990 C.3     
   6 C6            -1.3326     1.0678    -0.7672 C.2     
   7 O7            -2.4119     0.5397    -0.9478 O.2     
   8 O8            -1.2605     2.3940    -0.5465 O.3     
   9 C9            -1.2988    -1.7874    -0.1343 C.3     
  10 N10           -1.2875    -1.3039     1.2486 N.pl3   
  11 C11           -2.3023    -1.6752     2.1230 C.ar    
  12 C12           -3.3258    -2.5062     1.6784 C.ar    
  13 C13           -4.3291    -2.8677     2.5590 C.ar    
  14 C14           -4.2751    -2.3842     3.8598 C.ar    
  15 C15           -3.2302    -1.5635     4.2333 C.ar    
  16 N16           -2.2834    -1.2392     3.3730 N.ar    
  17 O17            3.2081    -0.1832     0.1642 O.3     
  18 C18            4.3923     0.3339    -0.4462 C.3     
  19 C19            5.4701     0.4843     0.5963 C.2     
  20 N20            6.6828     0.9584     0.2482 N.am    
  21 O21            5.2463     0.1788     1.7484 O.2     
  22 C22            7.7305     1.1046     1.2617 C.3     
  23 C23            8.9983     1.6583     0.6082 C.3     
  24 N24            8.6825     2.9070    -0.0899 N.am    
  25 C25            9.4474     3.3138    -1.1224 C.2     
  26 C26            9.1926     4.6517    -1.7675 C.3     
  27 C27           10.1167     5.7014    -1.1469 C.3     
  28 C28            9.7731     7.0812    -1.7116 C.3     
  29 C29           10.6972     8.1309    -1.0910 C.3     
  30 O30           10.3407     2.6032    -1.5322 O.2     
  31 C31            9.4676     4.5543    -3.2694 C.3     
  32 C32            8.4713     3.5848    -3.9084 C.3     
  33 C33            8.8215     3.3937    -5.3855 C.3     
  34 C34           10.0352     1.9243     1.6690 C.2     
  35 O35           10.4661     3.0421     1.8258 O.2     
  36 O36           10.4800     0.9193     2.4397 O.3     
  37 C37           -2.5122     3.1299    -0.5380 C.3     
  38 C38           -2.2358     4.5883    -0.2779 C.ar    
  39 C39           -2.0051     5.4475    -1.3360 C.ar    
  40 C40           -1.7515     6.7852    -1.0974 C.ar    
  41 C41           -1.7290     7.2639     0.1993 C.ar    
  42 C42           -1.9606     6.4049     1.2573 C.ar    
  43 C43           -2.2185     5.0680     1.0184 C.ar    
  44 H44           -0.1839    -1.4374    -1.9583 H       
  45 H45            1.1454    -1.5774     0.8034 H       
  46 H46            1.5668    -2.4861    -0.6869 H       
  47 H47            2.4829    -0.5326    -1.7561 H       
  48 H48            1.3652     1.5078    -1.5424 H       
  49 H49            1.2952     1.3886     0.2380 H       
  50 H50           -2.2465    -1.5235    -0.6037 H       
  51 H51           -1.1791    -2.8708    -0.1414 H       
  52 H52           -0.5719    -0.7247     1.5540 H       
  53 H53           -3.3368    -2.8639     0.6594 H       
  54 H54           -5.1365    -3.5112     2.2421 H       
  55 H55           -5.0433    -2.6475     4.5719 H       
  56 H56           -3.1844    -1.1853     5.2438 H       
  57 H57            4.7306    -0.3527    -1.2222 H       
  58 H58            4.1775     1.3061    -0.8897 H       
  59 H59            6.8618     1.2028    -0.6732 H       
  60 H60            7.3922     1.7913     2.0377 H       
  61 H61            7.9453     0.1324     1.7052 H       
  62 H62            9.3866     0.9314    -0.1052 H       
  63 H63            7.9230     3.4409     0.1909 H       
  64 H64            8.1542     4.9410    -1.6062 H       
  65 H65            9.9840     5.7082    -0.0650 H       
  66 H66           11.1527     5.4594    -1.3843 H       
  67 H67            9.9058     7.0744    -2.7935 H       
  68 H68            8.7371     7.3232    -1.4742 H       
  69 H69           10.4523     9.1139    -1.4933 H       
  70 H70           10.5644     8.1377    -0.0091 H       
  71 H71           11.7331     7.8888    -1.3284 H       
  72 H72            9.3583     5.5392    -3.7234 H       
  73 H73           10.4825     4.1907    -3.4302 H       
  74 H74            8.5198     2.6239    -3.3962 H       
  75 H75            7.4634     3.9912    -3.8236 H       
  76 H76            8.1117     2.7030    -5.8408 H       
  77 H77            8.7729     4.3546    -5.8977 H       
  78 H78            9.8293     2.9873    -5.4703 H       
  79 H79           11.1451     1.1387     3.1064 H       
  80 H80           -3.0047     3.0201    -1.5042 H       
  81 H81           -3.1592     2.7372     0.2464 H       
  82 H82           -2.0226     5.0735    -2.3490 H       
  83 H83           -1.5705     7.4563    -1.9240 H       
  84 H84           -1.5302     8.3089     0.3857 H       
  85 H85           -1.9427     6.7788     2.2703 H       
  86 H86           -2.4030     4.3976     1.8448 H       
@<TRIPOS>BOND
   1    1    2 1
   2    1    5 1
   3    1    6 am
   4    2    3 1
   5    2    9 1
   6    2   44 1
   7    3    4 1
   8    3   45 1
   9    3   46 1
  10    4    5 1
  11    4   17 1
  12    4   47 1
  13    5   48 1
  14    5   49 1
  15    6    7 2
  16    6    8 1
  17    8   37 1
  18    9   10 1
  19    9   50 1
  20    9   51 1
  21   10   11 1
  22   10   52 1
  23   11   12 ar
  24   11   16 ar
  25   12   13 ar
  26   12   53 1
  27   13   14 ar
  28   13   54 1
  29   14   15 ar
  30   14   55 1
  31   15   16 ar
  32   15   56 1
  33   17   18 1
  34   18   19 1
  35   18   57 1
  36   18   58 1
  37   19   20 am
  38   19   21 2
  39   20   22 1
  40   20   59 1
  41   22   23 1
  42   22   60 1
  43   22   61 1
  44   23   24 1
  45   23   34 1
  46   23   62 1
  47   24   25 am
  48   24   63 1
  49   25   26 1
  50   25   30 2
  51   26   27 1
  52   26   31 1
  53   26   64 1
  54   27   28 1
  55   27   65 1
  56   27   66 1
  57   28   29 1
  58   28   67 1
  59   28   68 1
  60   29   69 1
  61   29   70 1
  62   29   71 1
  63   31   32 1
  64   31   72 1
  65   31   73 1
  66   32   33 1
  67   32   74 1
  68   32   75 1
  69   33   76 1
  70   33   77 1
  71   33   78 1
  72   34   35 2
  73   34   36 1
  74   36   79 1
  75   37   38 1
  76   37   80 1
  77   37   81 1
  78   38   39 ar
  79   38   43 ar
  80   39   40 ar
  81   39   82 1
  82   40   41 ar
  83   40   83 1
  84   41   42 ar
  85   41   84 1
  86   42   43 ar
  87   42   85 1
  88   43   86 1

#	End of record

