#	Name: ASD02039143
#	Creating user name:	WinNT
#	Creation time:	15. 06. 2019 20:17

#	Modifying user name:	WinNT
#	Modification time:	15. 06. 2019 20:17

#	Program:	/corina/corina34_cracker 3.40 0067  02.08.2006

@<TRIPOS>MOLECULE
ASD02039143
  39   42    0    0    0
SMALL
NO_CHARGES


@<TRIPOS>ATOM
   1 N1            -0.0010     1.2804     0.2557 N.2     
   2 C2             0.0074    -0.0199     0.1291 C.2     
   3 N3             1.2988    -0.4141     0.1378 N.2     
   4 C4             2.0014     0.6839     0.2707 C.2     
   5 O5             1.1345     1.6989     0.3381 O.3     
   6 C6             3.5037     0.7835     0.3353 C.3     
   7 O7             4.0275     0.9458    -0.9842 O.3     
   8 C8             5.3777     1.0521    -1.1036 C.ar    
   9 N9            -1.1050    -0.8434     0.0085 N.pl3   
  10 C10           -2.3907    -0.3047     0.1292 C.ar    
  11 C11           -3.4563    -0.8915    -0.5408 C.ar    
  12 C12           -4.7246    -0.3583    -0.4198 C.ar    
  13 C13           -4.9341     0.7604     0.3688 C.ar    
  14 C14           -3.8730     1.3474     1.0374 C.ar    
  15 C15           -2.6040     0.8141     0.9238 C.ar    
  16 F16           -6.1756     1.2803     0.4858 F       
  17 C17            6.1800     1.0006     0.0335 C.ar    
  18 C18            7.5498     1.1062    -0.0684 C.ar    
  19 C19            8.1433     1.2661    -1.3158 C.ar    
  20 C20            7.3361     1.3187    -2.4679 C.ar    
  21 C21            5.9470     1.2051    -2.3521 C.ar    
  22 N22            9.5138     1.3748    -1.4388 N.am    
  23 C23           10.0899     1.5303    -2.6435 C.2     
  24 C24            9.3252     1.5895    -3.8281 C.2     
  25 C25            7.9742     1.4883    -3.7747 C.2     
  26 O26           11.3032     1.6230    -2.7143 O.2     
  27 H27            3.7850     1.6415     0.9460 H       
  28 H28            3.9094    -0.1262     0.7780 H       
  29 H29           -0.9904    -1.7919    -0.1594 H       
  30 H30           -3.2932    -1.7638    -1.1563 H       
  31 H31           -5.5535    -0.8141    -0.9410 H       
  32 H32           -4.0386     2.2203     1.6514 H       
  33 H33           -1.7767     1.2722     1.4454 H       
  34 H34            5.7240     0.8769     1.0046 H       
  35 H35            8.1624     1.0653     0.8201 H       
  36 H36            5.3231     1.2444    -3.2328 H       
  37 H37           10.0693     1.3388    -0.6444 H       
  38 H38            9.8181     1.7155    -4.7808 H       
  39 H39            7.3815     1.5319    -4.6766 H       
@<TRIPOS>BOND
   1    1    2 2
   2    1    5 1
   3    2    3 1
   4    2    9 1
   5    3    4 2
   6    4    5 1
   7    4    6 1
   8    6    7 1
   9    6   27 1
  10    6   28 1
  11    7    8 1
  12    8   17 ar
  13    8   21 ar
  14    9   10 1
  15    9   29 1
  16   10   11 ar
  17   10   15 ar
  18   11   12 ar
  19   11   30 1
  20   12   13 ar
  21   12   31 1
  22   13   14 ar
  23   13   16 1
  24   14   15 ar
  25   14   32 1
  26   15   33 1
  27   17   18 ar
  28   17   34 1
  29   18   19 ar
  30   18   35 1
  31   19   20 ar
  32   19   22 1
  33   20   21 ar
  34   20   25 1
  35   21   36 1
  36   22   23 am
  37   22   37 1
  38   23   24 1
  39   23   26 2
  40   24   25 2
  41   24   38 1
  42   25   39 1

#	End of record

