#	Name: ASD01917397
#	Creating user name:	WinNT
#	Creation time:	15. 06. 2019 20:09

#	Modifying user name:	WinNT
#	Modification time:	15. 06. 2019 20:09

#	Program:	/corina/corina34_cracker 3.40 0067  02.08.2006

@<TRIPOS>MOLECULE
ASD01917397
  37   39    0    0    0
SMALL
NO_CHARGES


@<TRIPOS>ATOM
   1 C1            -0.0168     1.3896     0.0097 C.ar    
   2 C2             0.0021    -0.0041     0.0020 C.ar    
   3 C3             1.2210    -0.6608    -0.0132 C.ar    
   4 C4             2.3830     0.1001    -0.0202 C.ar    
   5 C5             2.2882     1.4856    -0.0119 C.ar    
   6 N6             1.1163     2.0811     0.0026 N.ar    
   7 C7            -1.3128     2.1054     0.0197 C.2     
   8 O8            -2.3535     1.4779     0.0212 O.2     
   9 N9            -1.3383     3.4529     0.0271 N.am    
  10 F10            3.5927    -0.5013    -0.0346 F       
  11 C11           -2.6206     4.1612     0.0371 C.3     
  12 C12           -3.4936     3.8179    -1.1827 C.3     
  13 C13           -4.8898     4.4093    -0.9790 C.3     
  14 C14           -4.7981     5.9158    -0.7283 C.3     
  15 C15           -3.8691     6.1688     0.4719 C.3     
  16 C16           -4.2626     5.1662     1.5813 C.3     
  17 C17           -3.4562     3.8621     1.3031 C.3     
  18 C18           -2.4520     5.7036     0.0442 C.3     
  19 N19           -3.9085     7.5639     0.9303 N.3     
  20 H20           -0.9214    -0.5641     0.0082 H       
  21 H21            1.2671    -1.7398    -0.0191 H       
  22 H22            3.1888     2.0815    -0.0170 H       
  23 H23           -0.5076     3.9537     0.0259 H       
  24 H24           -3.0460     4.2409    -2.0821 H       
  25 H25           -3.5675     2.7353    -1.2851 H       
  26 H26           -5.4918     4.2278    -1.8693 H       
  27 H27           -5.3633     3.9293    -0.1225 H       
  28 H28           -4.3940     6.4086    -1.6126 H       
  29 H29           -5.7906     6.3103    -0.5108 H       
  30 H30           -3.9981     5.5674     2.5597 H       
  31 H31           -5.3318     4.9594     1.5372 H       
  32 H32           -4.1373     3.0322     1.1151 H       
  33 H33           -2.7980     3.6253     2.1391 H       
  34 H34           -1.6936     6.0105     0.7644 H       
  35 H35           -2.2152     6.0755    -0.9527 H       
  36 H36           -4.8426     7.8276     1.2060 H       
  37 H37           -3.2530     7.7161     1.6821 H       
@<TRIPOS>BOND
   1    1    2 ar
   2    1    6 ar
   3    1    7 1
   4    2    3 ar
   5    2   20 1
   6    3    4 ar
   7    3   21 1
   8    4    5 ar
   9    4   10 1
  10    5    6 ar
  11    5   22 1
  12    7    8 2
  13    7    9 am
  14    9   11 1
  15    9   23 1
  16   11   12 1
  17   11   17 1
  18   11   18 1
  19   12   13 1
  20   12   24 1
  21   12   25 1
  22   13   14 1
  23   13   26 1
  24   13   27 1
  25   14   15 1
  26   14   28 1
  27   14   29 1
  28   15   16 1
  29   15   18 1
  30   15   19 1
  31   16   17 1
  32   16   30 1
  33   16   31 1
  34   17   32 1
  35   17   33 1
  36   18   34 1
  37   18   35 1
  38   19   36 1
  39   19   37 1

#	End of record

