#	Name: ASD03080147
#	Creating user name:	WinNT
#	Creation time:	15. 06. 2019 20:26

#	Modifying user name:	WinNT
#	Modification time:	15. 06. 2019 20:26

#	Program:	/corina/corina34_cracker 3.40 0067  02.08.2006

@<TRIPOS>MOLECULE
ASD03080147
  53   56    0    0    0
SMALL
NO_CHARGES


@<TRIPOS>ATOM
   1 C1            -0.0180     1.4790     0.0102 C.ar    
   2 C2             0.0021    -0.0041     0.0020 C.ar    
   3 C3             1.1778     2.1948     0.0026 C.ar    
   4 C4            -1.1987    -0.7221     0.0096 C.ar    
   5 C5            -1.2329     2.1620     0.0196 C.ar    
   6 C6            -1.2456     3.5420     0.0267 C.ar    
   7 C7            -0.0556     4.2473     0.0244 C.ar    
   8 C8             1.1530     3.5747     0.0098 C.ar    
   9 C9            -1.1286    -2.1034     0.0016 C.ar    
  10 C10            0.1355    -2.6954    -0.0136 C.ar    
  11 N11            1.2210    -1.9352    -0.0199 N.ar    
  12 N12            1.1580    -0.6532    -0.0180 N.ar    
  13 N13            0.2555    -4.0800    -0.0217 N.3     
  14 C14            1.6706    -4.4870    -0.0374 C.3     
  15 C15           -0.3936    -4.6742     1.1637 C.3     
  16 C16            0.4626    -5.9074     1.5279 C.3     
  17 C17            1.9028    -5.4269     1.1586 C.3     
  18 C18            0.5155    -6.0426     3.0601 C.3     
  19 N19            1.6569    -5.2543     3.5416 N.am    
  20 C20            2.2869    -4.5820     2.3934 C.3     
  21 O21            3.1278    -4.4031     5.1403 O.3     
  22 C22            3.5068    -4.3501     6.5409 C.3     
  23 C23            3.8451    -5.7593     7.0314 C.3     
  24 C24            4.7302    -3.4459     6.7043 C.3     
  25 C25            2.3447    -3.7892     7.3629 C.3     
  26 C26            2.0616    -5.1619     4.8239 C.2     
  27 O27            1.4641    -5.7634     5.6944 O.2     
  28 H28            2.1220     1.6707    -0.0085 H       
  29 H29           -2.1513    -0.2133     0.0218 H       
  30 H30           -2.1625     1.6124     0.0210 H       
  31 H31           -2.1864     4.0724     0.0336 H       
  32 H32           -0.0703     5.3272     0.0296 H       
  33 H33            2.0791     4.1304     0.0084 H       
  34 H34           -2.0249    -2.7059     0.0073 H       
  35 H35            1.8939    -5.0105    -0.9671 H       
  36 H36            2.3086    -3.6081     0.0545 H       
  37 H37           -0.3982    -3.9614     1.9882 H       
  38 H38           -1.4117    -4.9799     0.9227 H       
  39 H39            0.1569    -6.8167     1.0105 H       
  40 H40            2.5948    -6.2407     0.9421 H       
  41 H41           -0.4074    -5.6604     3.4964 H       
  42 H42            0.6480    -7.0893     3.3338 H       
  43 H43            3.3699    -4.5630     2.5153 H       
  44 H44            1.9003    -3.5680     2.2916 H       
  45 H45            4.6730    -6.1589     6.4458 H       
  46 H46            4.1296    -5.7195     8.0828 H       
  47 H47            2.9735    -6.4035     6.9150 H       
  48 H48            4.4892    -2.4419     6.3549 H       
  49 H49            5.0147    -3.4061     7.7558 H       
  50 H50            5.5582    -3.8455     6.1187 H       
  51 H51            1.4731    -4.4334     7.2465 H       
  52 H52            2.6292    -3.7495     8.4143 H       
  53 H53            2.1037    -2.7853     7.0134 H       
@<TRIPOS>BOND
   1    1    2 1
   2    1    3 ar
   3    1    5 ar
   4    2    4 ar
   5    2   12 ar
   6    3    8 ar
   7    3   28 1
   8    4    9 ar
   9    4   29 1
  10    5    6 ar
  11    5   30 1
  12    6    7 ar
  13    6   31 1
  14    7    8 ar
  15    7   32 1
  16    8   33 1
  17    9   10 ar
  18    9   34 1
  19   10   11 ar
  20   10   13 1
  21   11   12 ar
  22   13   14 1
  23   13   15 1
  24   14   17 1
  25   14   35 1
  26   14   36 1
  27   15   16 1
  28   15   37 1
  29   15   38 1
  30   16   17 1
  31   16   18 1
  32   16   39 1
  33   17   20 1
  34   17   40 1
  35   18   19 1
  36   18   41 1
  37   18   42 1
  38   19   20 1
  39   19   26 am
  40   20   43 1
  41   20   44 1
  42   21   22 1
  43   21   26 1
  44   22   23 1
  45   22   24 1
  46   22   25 1
  47   23   45 1
  48   23   46 1
  49   23   47 1
  50   24   48 1
  51   24   49 1
  52   24   50 1
  53   25   51 1
  54   25   52 1
  55   25   53 1
  56   26   27 2

#	End of record

