#	Name: ASD01916882
#	Creating user name:	WinNT
#	Creation time:	15. 06. 2019 20:08

#	Modifying user name:	WinNT
#	Modification time:	15. 06. 2019 20:08

#	Program:	/corina/corina34_cracker 3.40 0067  02.08.2006

@<TRIPOS>MOLECULE
ASD01916882
  60   64    0    0    0
SMALL
NO_CHARGES


@<TRIPOS>ATOM
   1 C1            -0.0055     1.3584     0.1597 C.ar    
   2 C2             0.0243    -0.0040     0.4249 C.ar    
   3 C3             1.2396    -0.6587     0.5732 C.ar    
   4 C4             2.4211     0.0431     0.4570 C.ar    
   5 C5             2.3943     1.4108     0.1903 C.ar    
   6 C6             1.1728     2.0654     0.0425 C.ar    
   7 C7             3.6638     2.1687     0.0647 C.2     
   8 N8             4.8920     1.6531     0.1857 N.2     
   9 N9             3.7639     3.4558    -0.1895 N.2     
  10 N10            5.1344     3.7600    -0.2234 N.pl3   
  11 C11            5.7897     2.6006     0.0164 C.2     
  12 C12            7.2583     2.4283     0.0779 C.ar    
  13 C13            5.7359     5.0723    -0.4729 C.3     
  14 C14            5.8668     5.8205     0.8287 C.2     
  15 O15            5.4945     5.3080     1.8629 O.2     
  16 N16            6.3978     7.0592     0.8435 N.am    
  17 C17            6.5348     7.8068     2.1027 C.3     
  18 C18            7.9781     8.3092     2.2160 C.3     
  19 N19            8.3272     9.0633     1.0047 N.3     
  20 C20            8.2862     8.2058    -0.1873 C.3     
  21 C21            6.8612     7.6967    -0.3983 C.3     
  22 C22            9.5696     9.6723     1.1378 C.ar    
  23 N23           10.2580     9.5207     2.2588 N.ar    
  24 C24           10.0813    10.4308     0.0901 C.ar    
  25 C25           11.4406    10.0815     2.4257 C.ar    
  26 C26           12.0056    10.8525     1.4295 C.ar    
  27 C27           11.3190    11.0313     0.2361 C.ar    
  28 C28            8.0842     3.5308     0.2981 C.ar    
  29 C29            9.4526     3.3636     0.3544 C.ar    
  30 C30           10.0060     2.1060     0.1930 C.ar    
  31 C31            9.1923     1.0087    -0.0256 C.ar    
  32 C32            7.8221     1.1619    -0.0782 C.ar    
  33 O33           -1.1381    -0.6980     0.5400 O.3     
  34 C34           -1.0343    -2.0967     0.8135 C.3     
  35 H35           -0.9522     1.8642     0.0407 H       
  36 H36            1.2598    -1.7184     0.7802 H       
  37 H37            3.3662    -0.4666     0.5728 H       
  38 H38            1.1490     3.1251    -0.1646 H       
  39 H39            6.7224     4.9413    -0.9175 H       
  40 H40            5.1021     5.6387    -1.1553 H       
  41 H41            5.8508     8.6555     2.1009 H       
  42 H42            6.3080     7.1519     2.9439 H       
  43 H43            8.0702     8.9575     3.0873 H       
  44 H44            8.6519     7.4590     2.3219 H       
  45 H45            8.6018     8.7791    -1.0589 H       
  46 H46            8.9557     7.3570    -0.0479 H       
  47 H47            6.8483     6.9709    -1.2113 H       
  48 H48            6.2056     8.5333    -0.6401 H       
  49 H49            9.5200    10.5491    -0.8250 H       
  50 H50           11.9733     9.9359     3.3539 H       
  51 H51           12.9740    11.3079     1.5752 H       
  52 H52           11.7395    11.6297    -0.5586 H       
  53 H53            7.6533     4.5131     0.4238 H       
  54 H54           10.0931     4.2164     0.5244 H       
  55 H55           11.0778     1.9804     0.2376 H       
  56 H56            9.6303     0.0295    -0.1508 H       
  57 H57            7.1878     0.3045    -0.2486 H       
  58 H58           -0.4807    -2.5838     0.0108 H       
  59 H59           -0.5104    -2.2444     1.7578 H       
  60 H60           -2.0327    -2.5289     0.8805 H       
@<TRIPOS>BOND
   1    1    2 ar
   2    1    6 ar
   3    1   35 1
   4    2    3 ar
   5    2   33 1
   6    3    4 ar
   7    3   36 1
   8    4    5 ar
   9    4   37 1
  10    5    6 ar
  11    5    7 1
  12    6   38 1
  13    7    8 1
  14    7    9 2
  15    8   11 2
  16    9   10 1
  17   10   11 1
  18   10   13 1
  19   11   12 1
  20   12   28 ar
  21   12   32 ar
  22   13   14 1
  23   13   39 1
  24   13   40 1
  25   14   15 2
  26   14   16 am
  27   16   17 1
  28   16   21 1
  29   17   18 1
  30   17   41 1
  31   17   42 1
  32   18   19 1
  33   18   43 1
  34   18   44 1
  35   19   20 1
  36   19   22 1
  37   20   21 1
  38   20   45 1
  39   20   46 1
  40   21   47 1
  41   21   48 1
  42   22   23 ar
  43   22   24 ar
  44   23   25 ar
  45   24   27 ar
  46   24   49 1
  47   25   26 ar
  48   25   50 1
  49   26   27 ar
  50   26   51 1
  51   27   52 1
  52   28   29 ar
  53   28   53 1
  54   29   30 ar
  55   29   54 1
  56   30   31 ar
  57   30   55 1
  58   31   32 ar
  59   31   56 1
  60   32   57 1
  61   33   34 1
  62   34   58 1
  63   34   59 1
  64   34   60 1

#	End of record

