#	Name: ASD03590003
#	Creating user name:	WinNT
#	Creation time:	15. 06. 2019 20:43

#	Modifying user name:	WinNT
#	Modification time:	15. 06. 2019 20:43

#	Program:	/corina/corina34_cracker 3.40 0067  02.08.2006

@<TRIPOS>MOLECULE
ASD03590003
  77   82    0    0    0
SMALL
NO_CHARGES


@<TRIPOS>ATOM
   1 C1            -0.0167     1.3834     0.0096 C.ar    
   2 C2             0.0021    -0.0041     0.0020 C.ar    
   3 C3            -1.1849    -0.7091     0.0099 C.ar    
   4 C4            -2.3972    -0.0398     0.0254 C.ar    
   5 C5            -2.4213     1.3453     0.0324 C.ar    
   6 C6            -1.2272     2.0562     0.0306 C.ar    
   7 C7            -3.6712    -0.8472     0.0358 C.3     
   8 C8            -4.8461     0.0424    -0.3709 C.3     
   9 C9            -4.7631     1.3367     0.4505 C.3     
  10 O10           -3.5900     2.0424     0.0461 O.3     
  11 C11           -6.1519    -0.6457    -0.0781 C.2     
  12 C12           -7.2479     0.0818     0.1190 C.2     
  13 C13           -7.1729     1.5535     0.0368 C.2     
  14 C14           -5.9944     2.1635     0.1986 C.2     
  15 C15           -3.5548    -2.0217    -0.8816 C.ar    
  16 C16           -3.7150    -3.1678    -0.0797 C.ar    
  17 C17           -3.9264    -2.7324     1.3004 C.2     
  18 O18           -3.9000    -1.3859     1.3693 O.3     
  19 C19           -3.3374    -2.1129    -2.2381 C.ar    
  20 C20           -3.2823    -3.3921    -2.7839 C.ar    
  21 C21           -3.4375    -4.5228    -2.0064 C.ar    
  22 C22           -3.6582    -4.4473    -0.6397 C.ar    
  23 O23           -4.0999    -3.4749     2.2460 O.2     
  24 O24            1.1499     2.0804     0.0023 O.3     
  25 P25            1.6980     2.4241    -1.4720 P.3     
  26 O26            0.6696     3.4205    -2.2081 O.3     
  27 O27            3.1402     3.1304    -1.3572 O.3     
  28 O28            1.8213     1.1750    -2.2562 O.2     
  29 C29            4.1847     4.9729    -2.5210 C.3     
  30 C30            5.0374     5.3295    -3.7403 C.3     
  31 C31            6.3764     4.5939    -3.6590 C.3     
  32 C32            6.1283     3.0843    -3.6341 C.3     
  33 C33            5.2757     2.7277    -2.4148 C.3     
  34 C34            3.9366     3.4634    -2.4961 C.3     
  35 O35            4.8708     5.3627    -1.3296 O.3     
  36 O36            4.3513     4.9398    -4.9318 O.3     
  37 O37            7.1728     4.9269    -4.7979 O.3     
  38 O38            5.4423     2.6946    -4.8255 O.3     
  39 O39            5.0439     1.3178    -2.3914 O.3     
  40 O40           -8.2941     2.2835    -0.2016 O.3     
  41 C41           -8.1423     3.7029    -0.2673 C.3     
  42 C42           -9.5019     4.3490    -0.5411 C.3     
  43 C43           -9.3395     5.8687    -0.6114 C.3     
  44 C44          -10.6991     6.5148    -0.8851 C.3     
  45 H45            0.9442    -0.5319    -0.0104 H       
  46 H46           -1.1679    -1.7889     0.0035 H       
  47 H47           -1.2432     3.1361     0.0366 H       
  48 H48           -4.7768     0.2776    -1.4330 H       
  49 H49           -4.6942     1.0920     1.5105 H       
  50 H50           -6.1991    -1.7236    -0.0285 H       
  51 H51           -8.1883    -0.4021     0.3377 H       
  52 H52           -5.9269     3.2403     0.1493 H       
  53 H53           -3.2148    -1.2319    -2.8507 H       
  54 H54           -3.1131    -3.5034    -3.8447 H       
  55 H55           -3.3863    -5.4937    -2.4766 H       
  56 H56           -3.7798    -5.3348    -0.0364 H       
  57 H57            0.5398     4.2614    -1.7487 H       
  58 H58            3.2308     5.4971    -2.5789 H       
  59 H59            5.2141     6.4050    -3.7581 H       
  60 H60            6.8997     4.8911    -2.7503 H       
  61 H61            7.0823     2.5602    -3.5762 H       
  62 H62            5.7990     3.0250    -1.5060 H       
  63 H63            3.4133     3.1661    -3.4048 H       
  64 H64            5.0616     6.3092    -1.2774 H       
  65 H65            4.8346     5.1361    -5.7460 H       
  66 H66            8.0380     4.4953    -4.8126 H       
  67 H67            5.9256     2.8909    -5.6397 H       
  68 H68            5.8508     0.7874    -2.3403 H       
  69 H69           -7.7496     4.0705     0.6807 H       
  70 H70           -7.4507     3.9576    -1.0704 H       
  71 H71           -9.8947     3.9813    -1.4891 H       
  72 H72          -10.1935     4.0943     0.2620 H       
  73 H73           -8.9468     6.2364     0.3366 H       
  74 H74           -8.6479     6.1234    -1.4144 H       
  75 H75          -10.5834     7.5975    -0.9352 H       
  76 H76          -11.0918     6.1471    -1.8331 H       
  77 H77          -11.3907     6.2601    -0.0821 H       
@<TRIPOS>BOND
   1    1    2 ar
   2    1   24 1
   3    1    6 ar
   4    2    3 ar
   5    2   45 1
   6    3    4 ar
   7    3   46 1
   8    4    5 ar
   9    4    7 1
  10    5    6 ar
  11    5   10 1
  12    6   47 1
  13    7    8 1
  14    7   15 1
  15    7   18 1
  16    8    9 1
  17    8   11 1
  18    8   48 1
  19    9   10 1
  20    9   14 1
  21    9   49 1
  22   11   12 2
  23   11   50 1
  24   12   13 1
  25   12   51 1
  26   13   14 2
  27   13   40 1
  28   14   52 1
  29   15   16 ar
  30   15   19 ar
  31   16   17 1
  32   16   22 ar
  33   17   18 1
  34   17   23 2
  35   19   20 ar
  36   19   53 1
  37   20   21 ar
  38   20   54 1
  39   21   22 ar
  40   21   55 1
  41   22   56 1
  42   24   25 1
  43   25   26 1
  44   25   27 1
  45   25   28 2
  46   26   57 1
  47   27   34 1
  48   29   30 1
  49   29   35 1
  50   29   34 1
  51   29   58 1
  52   30   31 1
  53   30   36 1
  54   30   59 1
  55   31   32 1
  56   31   37 1
  57   31   60 1
  58   32   33 1
  59   32   38 1
  60   32   61 1
  61   33   34 1
  62   33   39 1
  63   33   62 1
  64   34   63 1
  65   35   64 1
  66   36   65 1
  67   37   66 1
  68   38   67 1
  69   39   68 1
  70   40   41 1
  71   41   42 1
  72   41   69 1
  73   41   70 1
  74   42   43 1
  75   42   71 1
  76   42   72 1
  77   43   44 1
  78   43   73 1
  79   43   74 1
  80   44   75 1
  81   44   76 1
  82   44   77 1

#	End of record

