#	Name: ASD01901005
#	Creating user name:	WinNT
#	Creation time:	15. 06. 2019 19:53

#	Modifying user name:	WinNT
#	Modification time:	15. 06. 2019 19:53

#	Program:	/corina/corina34_cracker 3.40 0067  02.08.2006

@<TRIPOS>MOLECULE
ASD01901005
  27   28    0    0    0
SMALL
NO_CHARGES


@<TRIPOS>ATOM
   1 C1            -0.0158     1.3120     0.0093 C.ar    
   2 N2             0.0021    -0.0041     0.0020 N.ar    
   3 C3             1.1596    -0.6685    -0.0126 C.ar    
   4 C4             2.3570     0.0604    -0.0202 C.ar    
   5 C5             2.2829     1.4403    -0.0121 C.ar    
   6 N6             1.0936     2.0244     0.0025 N.ar    
   7 C7             1.1784    -2.1407    -0.0203 C.2     
   8 C8             0.0237    -2.8273    -0.0124 C.2     
   9 C9             0.0426    -4.3007    -0.0200 C.ar    
  10 C10           -1.1566    -5.0184    -0.0119 C.ar    
  11 C11           -1.1310    -6.3973    -0.0196 C.ar    
  12 C12            0.0781    -7.0702    -0.0353 C.ar    
  13 C13            1.2696    -6.3664    -0.0434 C.ar    
  14 C14            1.2597    -4.9873    -0.0412 C.ar    
  15 C15           -1.3431     2.0255     0.0194 C.3     
  16 H16            3.3123    -0.4433    -0.0317 H       
  17 H17            3.1839     2.0358    -0.0172 H       
  18 H18            2.1206    -2.6686    -0.0321 H       
  19 H19           -0.9184    -2.2994    -0.0006 H       
  20 H20           -2.1009    -4.4945     0.0007 H       
  21 H21           -2.0569    -6.9533    -0.0130 H       
  22 H22            0.0920    -8.1501    -0.0409 H       
  23 H23            2.2094    -6.8983    -0.0556 H       
  24 H24            2.1903    -4.4392    -0.0517 H       
  25 H25           -1.6583     2.1919     1.0494 H       
  26 H26           -1.2442     2.9842    -0.4897 H       
  27 H27           -2.0870     1.4164    -0.4943 H       
@<TRIPOS>BOND
   1    1    2 ar
   2    1    6 ar
   3    1   15 1
   4    2    3 ar
   5    3    4 ar
   6    3    7 1
   7    4    5 ar
   8    4   16 1
   9    5    6 ar
  10    5   17 1
  11    7    8 2
  12    7   18 1
  13    8    9 1
  14    8   19 1
  15    9   10 ar
  16    9   14 ar
  17   10   11 ar
  18   10   20 1
  19   11   12 ar
  20   11   21 1
  21   12   13 ar
  22   12   22 1
  23   13   14 ar
  24   13   23 1
  25   14   24 1
  26   15   25 1
  27   15   26 1
  28   15   27 1

#	End of record

