#	Name: ASD01708050
#	Creating user name:	WinNT
#	Creation time:	15. 06. 2019 19:22

#	Modifying user name:	WinNT
#	Modification time:	15. 06. 2019 19:22

#	Program:	/corina/corina34_cracker 3.40 0067  02.08.2006

@<TRIPOS>MOLECULE
ASD01708050
  60   61    0    0    0
SMALL
NO_CHARGES


@<TRIPOS>ATOM
   1 C1            -0.0277     1.5461     0.0832 C.3     
   2 C2            -0.0058     0.0164     0.0641 C.3     
   3 O3             1.3126     2.0418     0.0759 O.3     
   4 C4             0.6241    -0.5009     1.3590 C.3     
   5 C5             0.6456    -2.0076     1.3402 C.ar    
   6 C6             1.7378    -2.6736     0.8138 C.ar    
   7 C7            -0.4244    -2.7175     1.8546 C.ar    
   8 C8            -0.4116    -4.0983     1.8418 C.ar    
   9 C9             0.6858    -4.7783     1.3069 C.ar    
  10 C10            1.7651    -4.0542     0.7935 C.ar    
  11 Cl11           3.1339    -4.8878     0.1264 Cl      
  12 Cl12          -1.7551    -4.9871     2.4890 Cl      
  13 C13            0.7075    -6.2550     1.2898 C.2     
  14 N14            1.2265    -6.9334     2.3324 N.am    
  15 O15            0.2573    -6.8586     0.3354 O.2     
  16 C16            1.2480    -8.3982     2.3154 C.3     
  17 C17           -0.0721    -8.9258     2.8153 C.2     
  18 O18           -0.2819   -10.2497     2.8873 O.3     
  19 O19           -0.9417    -8.1572     3.1512 O.2     
  20 C20           -0.7575     2.0533    -1.1339 C.ar    
  21 C21            2.3742    -8.9022     3.2202 C.3     
  22 C22           -2.0736     2.4591    -1.0299 C.ar    
  23 C23           -2.7449     2.9264    -2.1507 C.ar    
  24 C24           -2.0920     2.9847    -3.3732 C.ar    
  25 C25           -0.7754     2.5775    -3.4719 C.ar    
  26 C26           -0.1072     2.1173    -2.3526 C.ar    
  27 N27            3.6416    -8.2945     2.8069 N.pl3   
  28 C28            4.7943    -8.5980     3.4742 C.2     
  29 N29            5.9519    -8.1325     3.0390 N.2     
  30 N30            4.7502    -9.3828     4.5915 N.pl3   
  31 O31           -4.0400     3.3259    -2.0511 O.3     
  32 C32            6.0101    -7.4434     1.8737 C.1     
  33 N33            6.0588    -6.8657     0.8968 N.1     
  34 C34            5.9864    -9.7083     5.3072 C.3     
  35 C35            5.6603   -10.5934     6.5118 C.3     
  36 F36            6.8408   -10.9043     7.1952 F       
  37 H37           -0.5377     1.8910     0.9827 H       
  38 H38           -1.0251    -0.3605    -0.0199 H       
  39 H39            0.5803    -0.3280    -0.7879 H       
  40 H40            1.8270     1.7734    -0.6978 H       
  41 H41            1.6434    -0.1239     1.4430 H       
  42 H42            0.0380    -0.1564     2.2110 H       
  43 H43            2.5711    -2.1126     0.4174 H       
  44 H44           -1.2718    -2.1905     2.2677 H       
  45 H45            1.5857    -6.4519     3.0939 H       
  46 H46            1.4166    -8.7473     1.2967 H       
  47 H47           -1.1443   -10.5403     3.2142 H       
  48 H48            2.1601    -8.6289     4.2534 H       
  49 H49            2.4478    -9.9867     3.1390 H       
  50 H50           -2.5799     2.4125    -0.0771 H       
  51 H51           -2.6124     3.3477    -4.2471 H       
  52 H52           -0.2665     2.6227    -4.4235 H       
  53 H53            0.9220     1.7994    -2.4318 H       
  54 H54            3.6623    -7.6766     2.0594 H       
  55 H55            3.9005    -9.7245     4.9110 H       
  56 H56           -4.1473     4.2635    -1.8399 H       
  57 H57            6.6641   -10.2395     4.6388 H       
  58 H58            6.4608    -8.7887     5.6498 H       
  59 H59            4.9827   -10.0623     7.1801 H       
  60 H60            5.1860   -11.5130     6.1691 H       
@<TRIPOS>BOND
   1    1    2 1
   2    1    3 1
   3    1   20 1
   4    1   37 1
   5    2    4 1
   6    2   38 1
   7    2   39 1
   8    3   40 1
   9    4    5 1
  10    4   41 1
  11    4   42 1
  12    5    6 ar
  13    5    7 ar
  14    6   10 ar
  15    6   43 1
  16    7    8 ar
  17    7   44 1
  18    8    9 ar
  19    8   12 1
  20    9   10 ar
  21    9   13 1
  22   10   11 1
  23   13   14 am
  24   13   15 2
  25   14   16 1
  26   14   45 1
  27   16   17 1
  28   16   21 1
  29   16   46 1
  30   17   18 1
  31   17   19 2
  32   18   47 1
  33   20   22 ar
  34   20   26 ar
  35   21   27 1
  36   21   48 1
  37   21   49 1
  38   22   23 ar
  39   22   50 1
  40   23   24 ar
  41   23   31 1
  42   24   25 ar
  43   24   51 1
  44   25   26 ar
  45   25   52 1
  46   26   53 1
  47   27   28 1
  48   27   54 1
  49   28   29 2
  50   28   30 1
  51   29   32 1
  52   30   34 1
  53   30   55 1
  54   31   56 1
  55   32   33 3
  56   34   35 1
  57   34   57 1
  58   34   58 1
  59   35   36 1
  60   35   59 1
  61   35   60 1

#	End of record

