#	Name: ASD01814049
#	Creating user name:	WinNT
#	Creation time:	15. 06. 2019 19:31

#	Modifying user name:	WinNT
#	Modification time:	15. 06. 2019 19:31

#	Program:	/corina/corina34_cracker 3.40 0067  02.08.2006

@<TRIPOS>MOLECULE
ASD01814049
  53   56    0    0    0
SMALL
NO_CHARGES


@<TRIPOS>ATOM
   1 C1            -0.0086     1.3706     0.0313 C.ar    
   2 C2             0.0092    -0.0154     0.0189 C.ar    
   3 C3             1.2025    -0.7053    -0.0000 C.ar    
   4 C4             2.4087    -0.0111    -0.0074 C.ar    
   5 C5             2.3913     1.3944     0.0046 C.ar    
   6 C6             1.1751     2.0817     0.0244 C.ar    
   7 N7             3.6076    -0.6910    -0.0259 N.pl3   
   8 C8             4.7940    -0.0696    -0.0328 C.2     
   9 C9             4.9037     1.3060    -0.0223 C.2     
  10 C10            3.6753     2.1173    -0.0034 C.2     
  11 F11            1.1573     3.4325     0.0360 F       
  12 O12            3.7186     3.3351     0.0061 O.2     
  13 C13            6.2246     1.9503    -0.0295 C.2     
  14 O14            6.3187     3.2950    -0.0191 O.3     
  15 O15            7.2323     1.2706    -0.0448 O.2     
  16 C16            3.5830    -2.1557    -0.0380 C.3     
  17 C17            3.5595    -2.6460    -1.4628 C.ar    
  18 C18            4.7469    -2.8904    -2.1280 C.ar    
  19 C19            4.7287    -3.3398    -3.4339 C.ar    
  20 C20            3.5163    -3.5461    -4.0788 C.ar    
  21 C21            2.3256    -3.2997    -3.4080 C.ar    
  22 C22            2.3505    -2.8558    -2.1004 C.ar    
  23 N23            3.4945    -4.0009    -5.4020 N.am    
  24 C24            4.4509    -3.6067    -6.2660 C.2     
  25 N25            4.4943    -4.1291    -7.5076 N.am    
  26 O26            5.2746    -2.7797    -5.9252 O.2     
  27 C27            3.5739    -5.2057    -7.8819 C.3     
  28 C28            5.4186    -3.6433    -8.4392 C.ar    
  29 C29            4.9767    -2.9888    -9.5815 C.ar    
  30 C30            5.8914    -2.5100   -10.4988 C.ar    
  31 C31            7.2461    -2.6822   -10.2810 C.ar    
  32 C32            7.6893    -3.3339    -9.1448 C.ar    
  33 C33            6.7798    -3.8096    -8.2206 C.ar    
  34 H34           -0.9519     1.8964     0.0420 H       
  35 H35           -0.9227    -0.5612     0.0246 H       
  36 H36            1.2014    -1.7853    -0.0088 H       
  37 H37            5.6950    -0.6650    -0.0467 H       
  38 H38            7.2088     3.6729    -0.0245 H       
  39 H39            4.4722    -2.5382     0.4632 H       
  40 H40            2.6926    -2.5085     0.4824 H       
  41 H41            5.6895    -2.7295    -1.6260 H       
  42 H42            5.6565    -3.5302    -3.9530 H       
  43 H43            1.3811    -3.4588    -3.9070 H       
  44 H44            1.4248    -2.6640    -1.5781 H       
  45 H45            2.7911    -4.5999    -5.6975 H       
  46 H46            2.6598    -4.7761    -8.2918 H       
  47 H47            4.0444    -5.8417    -8.6316 H       
  48 H48            3.3326    -5.8002    -7.0007 H       
  49 H49            3.9188    -2.8546    -9.7525 H       
  50 H50            5.5484    -2.0009   -11.3873 H       
  51 H51            7.9594    -2.3072   -11.0000 H       
  52 H52            8.7480    -3.4672    -8.9777 H       
  53 H53            7.1266    -4.3185    -7.3333 H       
@<TRIPOS>BOND
   1    1    2 ar
   2    1    6 ar
   3    1   34 1
   4    2    3 ar
   5    2   35 1
   6    3    4 ar
   7    3   36 1
   8    4    5 ar
   9    4    7 1
  10    5    6 ar
  11    5   10 1
  12    6   11 1
  13    7    8 1
  14    7   16 1
  15    8    9 2
  16    8   37 1
  17    9   10 1
  18    9   13 1
  19   10   12 2
  20   13   14 1
  21   13   15 2
  22   14   38 1
  23   16   17 1
  24   16   39 1
  25   16   40 1
  26   17   18 ar
  27   17   22 ar
  28   18   19 ar
  29   18   41 1
  30   19   20 ar
  31   19   42 1
  32   20   21 ar
  33   20   23 1
  34   21   22 ar
  35   21   43 1
  36   22   44 1
  37   23   24 am
  38   23   45 1
  39   24   25 am
  40   24   26 2
  41   25   27 1
  42   25   28 1
  43   27   46 1
  44   27   47 1
  45   27   48 1
  46   28   29 ar
  47   28   33 ar
  48   29   30 ar
  49   29   49 1
  50   30   31 ar
  51   30   50 1
  52   31   32 ar
  53   31   51 1
  54   32   33 ar
  55   32   52 1
  56   33   53 1

#	End of record

