#	Name: ASD01150087
#	Creating user name:	WinNT
#	Creation time:	15. 06. 2019 19:03

#	Modifying user name:	WinNT
#	Modification time:	15. 06. 2019 19:03

#	Program:	/corina/corina34_cracker 3.40 0067  02.08.2006

@<TRIPOS>MOLECULE
ASD01150087
  22   22    0    0    0
SMALL
NO_CHARGES


@<TRIPOS>ATOM
   1 N1             0.1940     1.1069     0.3585 N.2     
   2 C2             0.0218    -0.1998     0.4690 C.2     
   3 N3            -0.6803    -0.8809    -0.4884 N.pl3   
   4 C4            -0.7570    -2.2776    -0.4389 C.ar    
   5 S5             0.6961    -1.0637     1.8487 S.3     
   6 C6             1.6767     0.2595     2.5994 C.3     
   7 C7            -1.9661    -2.9166    -0.6803 C.ar    
   8 C8            -2.0396    -4.2948    -0.6310 C.ar    
   9 C9            -0.9088    -5.0395    -0.3407 C.ar    
  10 C10            0.2977    -4.4044    -0.0992 C.ar    
  11 C11            0.3771    -3.0266    -0.1541 C.ar    
  12 F12           -0.9830    -6.3876    -0.2925 F       
  13 C13            0.4005     1.8591     1.4664 C.1     
  14 N14            0.5736     2.4898     2.3952 N.1     
  15 H15           -1.1247    -0.3957    -1.2011 H       
  16 H16            2.1020     0.8861     1.8154 H       
  17 H17            1.0379     0.8653     3.2421 H       
  18 H18            2.4808    -0.1759     3.1926 H       
  19 H19           -2.8484    -2.3361    -0.9061 H       
  20 H20           -2.9797    -4.7921    -0.8186 H       
  21 H21            1.1783    -4.9870     0.1278 H       
  22 H22            1.3184    -2.5317     0.0340 H       
@<TRIPOS>BOND
   1    1    2 2
   2    1   13 1
   3    2    3 1
   4    2    5 1
   5    3    4 1
   6    3   15 1
   7    4    7 ar
   8    4   11 ar
   9    5    6 1
  10    6   16 1
  11    6   17 1
  12    6   18 1
  13    7    8 ar
  14    7   19 1
  15    8    9 ar
  16    8   20 1
  17    9   10 ar
  18    9   12 1
  19   10   11 ar
  20   10   21 1
  21   11   22 1
  22   13   14 3

#	End of record

