#	Name: ASD01917736
#	Creating user name:	WinNT
#	Creation time:	15. 06. 2019 20:09

#	Modifying user name:	WinNT
#	Modification time:	15. 06. 2019 20:09

#	Program:	/corina/corina34_cracker 3.40 0067  02.08.2006

@<TRIPOS>MOLECULE
ASD01917736
  45   48    0    0    0
SMALL
NO_CHARGES


@<TRIPOS>ATOM
   1 C1            -0.1316     1.2274     0.8111 C.ar    
   2 C2            -0.1283    -0.1576     0.7645 C.ar    
   3 C3            -1.3170    -0.8553     0.6458 C.ar    
   4 C4            -2.5169    -0.1748     0.5734 C.ar    
   5 C5            -2.5281     1.2239     0.6204 C.ar    
   6 C6            -1.3242     1.9214     0.7451 C.ar    
   7 C7            -3.7680     1.9364     0.5459 C.1     
   8 C8            -4.7846     2.5206     0.4849 C.1     
   9 C9            -6.0245     3.2331     0.4105 C.ar    
  10 C10           -6.0534     4.6333     0.4560 C.ar    
  11 N11           -7.2180     5.2520     0.3839 N.ar    
  12 C12           -8.3466     4.5675     0.2701 C.ar    
  13 N13           -8.3625     3.2436     0.2240 N.ar    
  14 C14           -7.2409     2.5489     0.2842 C.ar    
  15 N15           -9.5485     5.2582     0.1975 N.am    
  16 C16           -9.6798     6.5904     0.2321 C.2     
  17 N17          -10.9471     7.0140     0.1452 N.am    
  18 C18          -11.8411     5.8525     0.0345 C.3     
  19 C19          -10.8765     4.6425     0.0642 C.3     
  20 C20          -12.4965     5.8461    -1.3611 C.3     
  21 C21          -11.4939     5.0712    -2.2511 C.3     
  22 C22          -10.9934     3.9580    -1.3123 C.3     
  23 H23          -12.5710     5.8199     0.8433 H       
  24 H24          -11.0923     3.9660     0.8913 H       
  25 C25          -11.3754     8.4149     0.1589 C.3     
  26 O26           -8.7338     7.3470     0.3339 O.2     
  27 C27          -11.6366     8.8543     1.6009 C.3     
  28 F28            1.0341     1.9004     0.9271 F       
  29 F29           -3.6768    -0.8578     0.4572 F       
  30 H30            0.8068    -0.6949     0.8207 H       
  31 H31           -1.3068    -1.9346     0.6094 H       
  32 H32           -1.3252     3.0008     0.7819 H       
  33 H33           -5.1375     5.1979     0.5491 H       
  34 H34           -7.2616     1.4698     0.2457 H       
  35 H35          -13.4559     5.3297    -1.3292 H       
  36 H36          -12.6229     6.8648    -1.7274 H       
  37 H37          -11.9973     4.6443    -3.1186 H       
  38 H38          -10.6716     5.7169    -2.5593 H       
  39 H39          -10.0189     3.5943    -1.6380 H       
  40 H40          -11.7129     3.1401    -1.2734 H       
  41 H41          -10.5934     9.0381    -0.2749 H       
  42 H42          -12.2900     8.5210    -0.4246 H       
  43 H43          -11.8818     9.9162     1.6184 H       
  44 H44          -12.4694     8.2823     2.0099 H       
  45 H45          -10.7445     8.6775     2.2019 H       
@<TRIPOS>BOND
   1    1    2 ar
   2    1   28 1
   3    1    6 ar
   4    2    3 ar
   5    2   30 1
   6    3    4 ar
   7    3   31 1
   8    4    5 ar
   9    4   29 1
  10    5    6 ar
  11    5    7 1
  12    6   32 1
  13    7    8 3
  14    8    9 1
  15    9   10 ar
  16    9   14 ar
  17   10   11 ar
  18   10   33 1
  19   11   12 ar
  20   12   13 ar
  21   12   15 1
  22   13   14 ar
  23   14   34 1
  24   15   16 am
  25   15   19 1
  26   16   17 am
  27   16   26 2
  28   17   18 1
  29   17   25 1
  30   18   19 1
  31   18   20 1
  32   18   23 1
  33   19   24 1
  34   19   22 1
  35   20   21 1
  36   20   35 1
  37   20   36 1
  38   21   22 1
  39   21   37 1
  40   21   38 1
  41   22   39 1
  42   22   40 1
  43   25   27 1
  44   25   41 1
  45   25   42 1
  46   27   43 1
  47   27   44 1
  48   27   45 1

#	End of record

