#	Name: ASD01811677
#	Creating user name:	WinNT
#	Creation time:	15. 06. 2019 19:27

#	Modifying user name:	WinNT
#	Modification time:	15. 06. 2019 19:27

#	Program:	/corina/corina34_cracker 3.40 0067  02.08.2006

@<TRIPOS>MOLECULE
ASD01811677
  62   66    0    0    0
SMALL
NO_CHARGES


@<TRIPOS>ATOM
   1 C1            -0.0167     1.3805     0.0096 C.ar    
   2 C2             0.0021    -0.0041     0.0020 C.ar    
   3 C3             1.2075    -0.6836    -0.0127 C.ar    
   4 C4             2.3988     0.0118    -0.0203 C.ar    
   5 C5             2.3881     1.4079    -0.0132 C.ar    
   6 C6             1.1658     2.0836     0.0021 C.ar    
   7 C7             3.4708     2.4102    -0.0183 C.2     
   8 N8             2.9565     3.6521    -0.0072 N.am    
   9 C9             1.4923     3.5561     0.0064 C.3     
  10 O10            4.6581     2.1501    -0.0300 O.2     
  11 C11            3.7301     4.8962    -0.0086 C.3     
  12 C12            4.5993     4.9548    -1.2663 C.3     
  13 C13            5.4073     6.2541    -1.2678 C.3     
  14 C14            6.3016     6.2999    -0.0272 C.3     
  15 C15            5.4324     6.2412     1.2305 C.3     
  16 C16            4.6244     4.9420     1.2320 C.3     
  17 O17            3.7640     4.9120    -2.4250 O.3     
  18 C18           -1.2939    -0.7731     0.0103 C.3     
  19 C19            1.2188    -2.1905    -0.0199 C.3     
  20 C20            1.0853    -2.6871    -1.4364 C.ar    
  21 C21            2.2157    -2.9084    -2.2107 C.ar    
  22 C22            2.0500    -3.3645    -3.5066 C.ar    
  23 C23            0.7608    -3.5847    -3.9872 C.ar    
  24 N24           -0.2942    -3.3603    -3.2145 N.ar    
  25 C25           -0.1639    -2.9318    -1.9750 C.ar    
  26 C26            0.5663    -4.0735    -5.3741 C.2     
  27 C27           -0.6688    -4.3409    -5.9975 C.2     
  28 N28           -0.4282    -4.7517    -7.2141 N.2     
  29 N29            0.9574    -4.7630    -7.4144 N.pl3   
  30 C30            1.5509    -4.3406    -6.2813 C.2     
  31 C31           -2.0297    -4.1813    -5.3702 C.3     
  32 C32            1.6435    -5.1605    -8.6463 C.3     
  33 H33           -0.9590     1.9081     0.0170 H       
  34 H34            3.3374    -0.5224    -0.0314 H       
  35 H35            1.0774     4.0343    -0.8809 H       
  36 H36            1.0945     4.0255     0.9061 H       
  37 H37            3.0494     5.7474     0.0026 H       
  38 H38            5.2801     4.1036    -1.2776 H       
  39 H39            6.0265     6.2958    -2.1639 H       
  40 H40            4.7265     7.1053    -1.2566 H       
  41 H41            6.9823     5.4487    -0.0385 H       
  42 H42            6.8772     7.2255    -0.0283 H       
  43 H43            6.0695     6.2739     2.1143 H       
  44 H44            4.7516     7.0924     1.2417 H       
  45 H45            4.0052     4.9002     2.1280 H       
  46 H46            5.3052     4.0908     1.2208 H       
  47 H47            4.2490     4.9455    -3.2609 H       
  48 H48           -1.6162    -0.9530    -1.0154 H       
  49 H49           -1.1473    -1.7267     0.5176 H       
  50 H50           -2.0556    -0.1960     0.5345 H       
  51 H51            2.1570    -2.5488     0.4038 H       
  52 H52            0.3854    -2.5629     0.5758 H       
  53 H53            3.2026    -2.7284    -1.8107 H       
  54 H54            2.9079    -3.5469    -4.1368 H       
  55 H55           -1.0455    -2.7603    -1.3752 H       
  56 H56            2.6135    -4.2376    -6.1180 H       
  57 H57           -2.3987    -3.1724    -5.5544 H       
  58 H58           -2.7181    -4.9052    -5.8065 H       
  59 H59           -1.9568    -4.3511    -4.2960 H       
  60 H60            1.7734    -4.2886    -9.2874 H       
  61 H61            2.6194    -5.5789    -8.3999 H       
  62 H62            1.0482    -5.9097    -9.1682 H       
@<TRIPOS>BOND
   1    1    2 ar
   2    1    6 ar
   3    1   33 1
   4    2    3 ar
   5    2   18 1
   6    3    4 ar
   7    3   19 1
   8    4    5 ar
   9    4   34 1
  10    5    6 ar
  11    5    7 1
  12    6    9 1
  13    7    8 am
  14    7   10 2
  15    8    9 1
  16    8   11 1
  17    9   35 1
  18    9   36 1
  19   11   12 1
  20   11   16 1
  21   11   37 1
  22   12   13 1
  23   12   17 1
  24   12   38 1
  25   13   14 1
  26   13   39 1
  27   13   40 1
  28   14   15 1
  29   14   41 1
  30   14   42 1
  31   15   16 1
  32   15   43 1
  33   15   44 1
  34   16   45 1
  35   16   46 1
  36   17   47 1
  37   18   48 1
  38   18   49 1
  39   18   50 1
  40   19   20 1
  41   19   51 1
  42   19   52 1
  43   20   21 ar
  44   20   25 ar
  45   21   22 ar
  46   21   53 1
  47   22   23 ar
  48   22   54 1
  49   23   24 ar
  50   23   26 1
  51   24   25 ar
  52   25   55 1
  53   26   27 1
  54   26   30 2
  55   27   28 2
  56   27   31 1
  57   28   29 1
  58   29   30 1
  59   29   32 1
  60   30   56 1
  61   31   57 1
  62   31   58 1
  63   31   59 1
  64   32   60 1
  65   32   61 1
  66   32   62 1

#	End of record

