#	Name: ASD01870556
#	Creating user name:	WinNT
#	Creation time:	15. 06. 2019 19:39

#	Modifying user name:	WinNT
#	Modification time:	15. 06. 2019 19:39

#	Program:	/corina/corina34_cracker 3.40 0067  02.08.2006

@<TRIPOS>MOLECULE
ASD01870556
  50   54    0    0    0
SMALL
NO_CHARGES


@<TRIPOS>ATOM
   1 N1            -0.1511     1.4536    -0.2474 N.2     
   2 C2            -0.5977     0.5805    -1.1400 C.ar    
   3 C3             0.1320     0.7619    -2.3432 C.ar    
   4 N4             0.8686     2.2243    -0.8232 N.pl3   
   5 C5            -1.5962    -0.4275    -1.1176 C.ar    
   6 N6            -1.7947    -1.1429    -2.2137 N.ar    
   7 C7            -1.0863    -0.9352    -3.3144 C.ar    
   8 N8            -0.1518    -0.0198    -3.3950 N.ar    
   9 C9             1.6313     3.2372    -0.3223 C.2     
  10 C10            1.0483     1.8040    -2.1135 C.2     
  11 C11            2.0163     2.4131    -2.9218 C.2     
  12 C12            2.7748     3.4261    -2.4102 C.2     
  13 C13            2.5707     3.8385    -1.0864 C.2     
  14 N14           -2.3433    -0.6573     0.0214 N.pl3   
  15 C15           -3.3699    -1.7024     0.0255 C.3     
  16 C16           -5.1421    -1.8574     1.7210 C.3     
  17 C17           -5.1901    -0.3016     1.8127 C.3     
  18 C18           -4.9207     0.1834     0.3699 C.3     
  19 C19           -4.7354    -1.1251    -0.4577 C.3     
  20 C20           -3.6393    -2.1874     1.4684 C.3     
  21 C21           -1.3668    -1.7883    -4.5246 C.3     
  22 C22           -4.9054    -0.9884    -1.9720 C.3     
  23 C23           -5.7338    -2.0818     0.2847 C.3     
  24 C24           -5.5874    -3.5334    -0.1759 C.3     
  25 C25           -7.1807    -1.5960     0.1779 C.3     
  26 H26            1.4831     3.5633     0.6965 H       
  27 H27            2.1615     2.0841    -3.9402 H       
  28 H28            3.5254     3.9062    -3.0205 H       
  29 H29            3.1667     4.6395    -0.6747 H       
  30 H30           -2.1882    -0.1266     0.8184 H       
  31 H31           -3.0648    -2.5362    -0.6068 H       
  32 H32           -5.6295    -2.3978     2.5325 H       
  33 H33           -6.1733     0.0292     2.1474 H       
  34 H34           -4.4155     0.0634     2.4871 H       
  35 H35           -5.7715     0.7526    -0.0047 H       
  36 H36           -4.0137     0.7868     0.3350 H       
  37 H37           -3.4676    -3.2610     1.5467 H       
  38 H38           -3.0079    -1.6482     2.1746 H       
  39 H39           -2.1319    -1.3106    -5.1365 H       
  40 H40           -0.4534    -1.9022    -5.1085 H       
  41 H41           -1.7178    -2.7693    -4.2042 H       
  42 H42           -4.7906    -1.9661    -2.4402 H       
  43 H43           -5.8976    -0.5944    -2.1922 H       
  44 H44           -4.1492    -0.3075    -2.3626 H       
  45 H45           -6.1375    -4.1868     0.5014 H       
  46 H46           -5.9870    -3.6366    -1.1847 H       
  47 H47           -4.5334    -3.8112    -0.1724 H       
  48 H48           -7.2272    -0.5355     0.4257 H       
  49 H49           -7.5406    -1.7474    -0.8398 H       
  50 H50           -7.8052    -2.1589     0.8716 H       
@<TRIPOS>BOND
   1    1    2 2
   2    1    4 1
   3    2    3 ar
   4    2    5 ar
   5    3   10 2
   6    3    8 ar
   7    4   10 1
   8    4    9 1
   9    5    6 ar
  10    5   14 1
  11    6    7 ar
  12    7    8 ar
  13    7   21 1
  14    9   13 2
  15    9   26 1
  16   10   11 1
  17   11   12 2
  18   11   27 1
  19   12   13 1
  20   12   28 1
  21   13   29 1
  22   14   15 1
  23   14   30 1
  24   15   19 1
  25   15   20 1
  26   15   31 1
  27   16   17 1
  28   16   23 1
  29   16   20 1
  30   16   32 1
  31   17   18 1
  32   17   33 1
  33   17   34 1
  34   18   19 1
  35   18   35 1
  36   18   36 1
  37   19   22 1
  38   19   23 1
  39   20   37 1
  40   20   38 1
  41   21   39 1
  42   21   40 1
  43   21   41 1
  44   22   42 1
  45   22   43 1
  46   22   44 1
  47   23   24 1
  48   23   25 1
  49   24   45 1
  50   24   46 1
  51   24   47 1
  52   25   48 1
  53   25   49 1
  54   25   50 1

#	End of record

