#	Name: ASD01140434
#	Creating user name:	WinNT
#	Creation time:	15. 06. 2019 19:00

#	Modifying user name:	WinNT
#	Modification time:	15. 06. 2019 19:00

#	Program:	/corina/corina34_cracker 3.40 0067  02.08.2006

@<TRIPOS>MOLECULE
ASD01140434
  31   33    0    0    0
SMALL
NO_CHARGES


@<TRIPOS>ATOM
   1 C1            -0.0164     1.3600     0.0095 C.2     
   2 C2             0.0021    -0.0041     0.0020 C.2     
   3 C3            -1.2123    -0.7040     0.0345 C.2     
   4 N4            -2.3892    -0.0395     0.1375 N.am    
   5 C5            -2.4097     1.3108     0.0505 C.2     
   6 C6            -1.2507     2.0196     0.0307 C.2     
   7 C7            -3.5861    -0.8406     0.3966 C.3     
   8 C8            -4.8638    -0.0999     0.0377 C.3     
   9 C9            -4.8212     1.3094     0.6350 C.3     
  10 C10           -3.7045     2.0819    -0.0765 C.3     
  11 C11           -4.0549     2.1567    -1.5715 C.3     
  12 C12           -5.0751    -0.0389    -1.4684 C.3     
  13 N13           -4.0485     0.7882    -2.1105 N.3     
  14 C14            1.2708     2.1435     0.0014 C.3     
  15 O15           -1.2097    -1.9229    -0.0308 O.2     
  16 H16            0.9403    -0.5380    -0.0289 H       
  17 H17           -1.2821     3.0991     0.0219 H       
  18 H18           -3.5320    -1.7572    -0.1908 H       
  19 H19           -3.6144    -1.1020     1.4545 H       
  20 H20           -5.7069    -0.6344     0.4753 H       
  21 H21           -5.7767     1.8084     0.4736 H       
  22 H22           -4.6089     1.2521     1.7026 H       
  23 H23           -3.5985     3.0793     0.3501 H       
  24 H24           -5.0441     2.5970    -1.6963 H       
  25 H25           -3.3135     2.7615    -2.0937 H       
  26 H26           -5.0291    -1.0482    -1.8774 H       
  27 H27           -6.0576     0.3856    -1.6750 H       
  28 H28           -4.1636     0.7938    -3.1129 H       
  29 H29            2.1154     1.4547    -0.0103 H       
  30 H30            1.3055     2.7761    -0.8855 H       
  31 H31            1.3225     2.7666     0.8943 H       
@<TRIPOS>BOND
   1    1    2 2
   2    1   14 1
   3    1    6 1
   4    2    3 1
   5    2   16 1
   6    3    4 am
   7    3   15 2
   8    4    5 1
   9    4    7 1
  10    5    6 2
  11    5   10 1
  12    6   17 1
  13    7    8 1
  14    7   18 1
  15    7   19 1
  16    8    9 1
  17    8   12 1
  18    8   20 1
  19    9   10 1
  20    9   21 1
  21    9   22 1
  22   10   11 1
  23   10   23 1
  24   11   13 1
  25   11   24 1
  26   11   25 1
  27   12   13 1
  28   12   26 1
  29   12   27 1
  30   13   28 1
  31   14   29 1
  32   14   30 1
  33   14   31 1

#	End of record

