#	Name: ASD00170431
#	Creating user name:	WinNT
#	Creation time:	15. 06. 2019 18:32

#	Modifying user name:	WinNT
#	Modification time:	15. 06. 2019 18:32

#	Program:	/corina/corina34_cracker 3.40 0067  02.08.2006

@<TRIPOS>MOLECULE
ASD00170431
  67   71    0    0    0
SMALL
NO_CHARGES


@<TRIPOS>ATOM
   1 C1             0.1517     0.2417    -1.8485 C.2     
   2 C2             0.1052    -1.0628    -1.4066 C.2     
   3 C3            -1.0862    -1.3543    -0.6459 C.2     
   4 C4            -1.9022    -0.2959    -0.5260 C.2     
   5 S5            -1.2279     1.1036    -1.3413 S.3     
   6 C6            -1.3827    -2.7059    -0.0489 C.3     
   7 N7             1.1784     0.7783    -2.5950 N.pl3   
   8 C8             1.1526    -2.0478    -1.6796 C.2     
   9 C9             1.0341    -2.9490    -2.8458 C.ar    
  10 O10            2.1218    -2.1252    -0.9463 O.2     
  11 C11            1.9695    -3.9666    -3.0430 C.ar    
  12 C12            1.8535    -4.8042    -4.1322 C.ar    
  13 C13            0.8119    -4.6373    -5.0299 C.ar    
  14 C14           -0.1189    -3.6293    -4.8398 C.ar    
  15 C15           -0.0169    -2.7893    -3.7509 C.ar    
  16 Cl16           0.6728    -5.6955    -6.3991 Cl      
  17 N17           -1.4483    -2.5912     1.4141 N.3     
  18 C18           -3.1842    -0.3060     0.1956 C.2     
  19 C19           -2.0573    -3.7882     2.0093 C.3     
  20 C20           -0.1173    -2.3397     1.9827 C.3     
  21 C21           -3.4865    -3.9468     1.4866 C.3     
  22 C22           -4.1209    -5.1935     2.1064 C.3     
  23 C23           -3.2990    -6.4267     1.7261 C.3     
  24 C24           -1.8698    -6.2681     2.2488 C.3     
  25 C25           -1.2354    -5.0214     1.6289 C.3     
  26 C26            0.2509    -0.8676     1.7872 C.3     
  27 C27            1.6372    -0.6057     2.3793 C.3     
  28 C28            1.6238    -0.9340     3.8736 C.3     
  29 C29            1.2556    -2.4061     4.0691 C.3     
  30 C30           -0.1307    -2.6680     3.4770 C.3     
  31 C31           -4.0328     0.7512     0.3342 C.2     
  32 C32           -5.1285     0.2948     1.0937 C.2     
  33 C33           -4.8995    -1.0019     1.3788 C.2     
  34 O34           -3.7268    -1.3637     0.8299 O.3     
  35 H35           -2.3380    -3.0690    -0.4281 H       
  36 H36           -0.5932    -3.4055    -0.3235 H       
  37 H37            1.9702     0.2499    -2.7812 H       
  38 H38            1.1091     1.6844    -2.9343 H       
  39 H39            2.7825    -4.0972    -2.3441 H       
  40 H40            2.5764    -5.5917    -4.2859 H       
  41 H41           -0.9287    -3.5038    -5.5433 H       
  42 H42           -0.7432    -2.0037    -3.6037 H       
  43 H43           -2.0766    -3.6849     3.0942 H       
  44 H44            0.6175    -2.9680     1.4792 H       
  45 H45           -4.0720    -3.0682     1.7575 H       
  46 H46           -3.4672    -4.0501     0.4016 H       
  47 H47           -4.1402    -5.0902     3.1913 H       
  48 H48           -5.1390    -5.3065     1.7340 H       
  49 H49           -3.7509    -7.3149     2.1676 H       
  50 H50           -3.2797    -6.5300     0.6411 H       
  51 H51           -1.8891    -6.1648     3.3337 H       
  52 H52           -1.2843    -7.1466     1.9778 H       
  53 H53           -1.2161    -5.1247     0.5440 H       
  54 H54           -0.2173    -4.9084     2.0013 H       
  55 H55            0.2605    -0.6337     0.7226 H       
  56 H56           -0.4838    -0.2393     2.2906 H       
  57 H57            2.3720    -1.2340     1.8759 H       
  58 H58            1.8995     0.4431     2.2400 H       
  59 H59            2.6114    -0.7474     4.2955 H       
  60 H60            0.8890    -0.3057     4.3771 H       
  61 H61            1.9904    -3.0343     3.5656 H       
  62 H62            1.2461    -2.6399     5.1337 H       
  63 H63           -0.8654    -2.0397     3.9804 H       
  64 H64           -0.3930    -3.7168     3.6162 H       
  65 H65           -3.8928     1.7463    -0.0615 H       
  66 H66           -5.9894     0.8751     1.3913 H       
  67 H67           -5.5521    -1.6454     1.9501 H       
@<TRIPOS>BOND
   1    1    2 2
   2    1    7 1
   3    1    5 1
   4    2    3 1
   5    2    8 1
   6    3    4 2
   7    3    6 1
   8    4    5 1
   9    4   18 1
  10    6   17 1
  11    6   35 1
  12    6   36 1
  13    7   37 1
  14    7   38 1
  15    8    9 1
  16    8   10 2
  17    9   11 ar
  18    9   15 ar
  19   11   12 ar
  20   11   39 1
  21   12   13 ar
  22   12   40 1
  23   13   14 ar
  24   13   16 1
  25   14   15 ar
  26   14   41 1
  27   15   42 1
  28   17   19 1
  29   17   20 1
  30   18   31 2
  31   18   34 1
  32   19   21 1
  33   19   25 1
  34   19   43 1
  35   20   26 1
  36   20   30 1
  37   20   44 1
  38   21   22 1
  39   21   45 1
  40   21   46 1
  41   22   23 1
  42   22   47 1
  43   22   48 1
  44   23   24 1
  45   23   49 1
  46   23   50 1
  47   24   25 1
  48   24   51 1
  49   24   52 1
  50   25   53 1
  51   25   54 1
  52   26   27 1
  53   26   55 1
  54   26   56 1
  55   27   28 1
  56   27   57 1
  57   27   58 1
  58   28   29 1
  59   28   59 1
  60   28   60 1
  61   29   30 1
  62   29   61 1
  63   29   62 1
  64   30   63 1
  65   30   64 1
  66   31   32 1
  67   31   65 1
  68   32   33 2
  69   32   66 1
  70   33   34 1
  71   33   67 1

#	End of record

