#	Name: ASD03092496
#	Creating user name:	WinNT
#	Creation time:	15. 06. 2019 20:32

#	Modifying user name:	WinNT
#	Modification time:	15. 06. 2019 20:32

#	Program:	/corina/corina34_cracker 3.40 0067  02.08.2006

@<TRIPOS>MOLECULE
ASD03092496
  36   38    0    0    0
SMALL
NO_CHARGES


@<TRIPOS>ATOM
   1 O1             0.8975    -0.5264     0.0123 O.3     
   2 C2            -0.1880     0.4016     0.0620 C.3     
   3 C3            -1.4935    -0.3507     0.0386 C.2     
   4 C4            -2.1810    -0.8194     1.1160 C.2     
   5 N5            -3.2920    -1.4321     0.6829 N.2     
   6 N6            -3.3479    -1.3788    -0.6021 N.2     
   7 N7            -2.2177    -0.6885    -1.0640 N.pl3   
   8 C8            -1.8955    -0.4043    -2.3991 C.ar    
   9 C9            -0.6245    -0.6823    -2.8820 C.ar    
  10 C10           -0.3100    -0.4018    -4.1977 C.ar    
  11 C11           -1.2596     0.1559    -5.0336 C.ar    
  12 C12           -2.5272     0.4344    -4.5563 C.ar    
  13 C13           -2.8499     0.1509    -3.2427 C.ar    
  14 Cl14          -4.4435     0.4940    -2.6456 Cl      
  15 C15           -0.9123     0.4613    -6.4679 C.3     
  16 F16           -1.2026    -0.6511    -7.2651 F       
  17 F17           -1.6628     1.5577    -6.9061 F       
  18 F18            0.4508     0.7610    -6.5640 F       
  19 C19           -1.7689    -0.6759     2.5349 C.ar    
  20 C20           -0.4339    -0.8480     2.8948 C.ar    
  21 C21           -0.0538    -0.7141     4.2140 C.ar    
  22 C22           -0.9999    -0.4087     5.1826 C.ar    
  23 O23           -0.6226    -0.2774     6.4816 O.3     
  24 C24           -2.3306    -0.2368     4.8270 C.ar    
  25 C25           -2.7154    -0.3633     3.5084 C.ar    
  26 H26            1.7708    -0.1112     0.0240 H       
  27 H27           -0.1229     0.9881     0.9784 H       
  28 H28           -0.1367     1.0672    -0.7997 H       
  29 H29            0.1183    -1.1173    -2.2297 H       
  30 H30            0.6791    -0.6181    -4.5737 H       
  31 H31           -3.2668     0.8704    -5.2116 H       
  32 H32            0.3026    -1.0863     2.1416 H       
  33 H33            0.9808    -0.8473     4.4935 H       
  34 H34           -0.3678     0.6223     6.7282 H       
  35 H35           -3.0646     0.0004     5.5829 H       
  36 H36           -3.7501    -0.2247     3.2316 H       
@<TRIPOS>BOND
   1    1    2 1
   2    1   26 1
   3    2    3 1
   4    2   27 1
   5    2   28 1
   6    3    7 1
   7    3    4 2
   8    4    5 1
   9    4   19 1
  10    5    6 2
  11    6    7 1
  12    7    8 1
  13    8   13 ar
  14    8    9 ar
  15    9   10 ar
  16    9   29 1
  17   10   11 ar
  18   10   30 1
  19   11   12 ar
  20   11   15 1
  21   12   13 ar
  22   12   31 1
  23   13   14 1
  24   15   16 1
  25   15   17 1
  26   15   18 1
  27   19   25 ar
  28   19   20 ar
  29   20   21 ar
  30   20   32 1
  31   21   22 ar
  32   21   33 1
  33   22   23 1
  34   22   24 ar
  35   23   34 1
  36   24   25 ar
  37   24   35 1
  38   25   36 1

#	End of record

