#	Name: ASD03080083
#	Creating user name:	WinNT
#	Creation time:	15. 06. 2019 20:26

#	Modifying user name:	WinNT
#	Modification time:	15. 06. 2019 20:26

#	Program:	/corina/corina34_cracker 3.40 0067  02.08.2006

@<TRIPOS>MOLECULE
ASD03080083
  28   30    0    0    0
SMALL
NO_CHARGES


@<TRIPOS>ATOM
   1 N1             0.0175    -1.1399    -0.0042 N.1     
   2 C2             0.0021    -0.0041     0.0020 C.1     
   3 C3            -0.0173     1.4278     0.0099 C.ar    
   4 C4             1.1819     2.1444     0.0023 C.ar    
   5 C5             1.1646     3.5251     0.0099 C.ar    
   6 C6            -0.0360     4.2067     0.0255 C.ar    
   7 C7            -1.2426     3.5028     0.0333 C.ar    
   8 C8            -1.2330     2.1100     0.0194 C.ar    
   9 C9            -2.5272     4.2347     0.0500 C.2     
  10 O10           -3.7553     3.6939     0.0594 O.3     
  11 N11           -4.5928     4.5709     0.0731 N.2     
  12 C12           -4.0195     5.7470     0.0742 C.2     
  13 N13           -2.6854     5.5448     0.0644 N.2     
  14 C14           -4.7094     7.0613     0.0891 C.ar    
  15 C15           -6.1012     7.1202     0.1042 C.ar    
  16 C16           -6.7376     8.3449     0.1185 C.ar    
  17 C17           -5.9960     9.5124     0.1173 C.ar    
  18 C18           -4.6138     9.4598     0.1023 C.ar    
  19 C19           -3.9673     8.2404     0.0938 C.ar    
  20 H20            2.1245     1.6174    -0.0092 H       
  21 H21            2.0944     4.0744     0.0040 H       
  22 H22           -0.0423     5.2866     0.0322 H       
  23 H23           -2.1631     1.5611     0.0253 H       
  24 H24           -6.6812     6.2091     0.1044 H       
  25 H25           -7.8165     8.3916     0.1302 H       
  26 H26           -6.4979    10.4687     0.1278 H       
  27 H27           -4.0396    10.3744     0.1011 H       
  28 H28           -2.8881     8.2003     0.0825 H       
@<TRIPOS>BOND
   1    1    2 3
   2    2    3 1
   3    3    4 ar
   4    3    8 ar
   5    4    5 ar
   6    4   20 1
   7    5    6 ar
   8    5   21 1
   9    6    7 ar
  10    6   22 1
  11    7    8 ar
  12    7    9 1
  13    8   23 1
  14    9   10 1
  15    9   13 2
  16   10   11 1
  17   11   12 2
  18   12   13 1
  19   12   14 1
  20   14   15 ar
  21   14   19 ar
  22   15   16 ar
  23   15   24 1
  24   16   17 ar
  25   16   25 1
  26   17   18 ar
  27   17   26 1
  28   18   19 ar
  29   18   27 1
  30   19   28 1

#	End of record

