#	Name: ASD01840373
#	Creating user name:	WinNT
#	Creation time:	15. 06. 2019 19:37

#	Modifying user name:	WinNT
#	Modification time:	15. 06. 2019 19:37

#	Program:	/corina/corina34_cracker 3.40 0067  02.08.2006

@<TRIPOS>MOLECULE
ASD01840373
  50   53    0    0    0
SMALL
NO_CHARGES


@<TRIPOS>ATOM
   1 C1             0.2611     1.7552    -0.9980 C.ar    
   2 C2             0.3841     0.5320    -1.6195 C.ar    
   3 N3             1.4990    -0.1677    -1.4965 N.ar    
   4 N4             2.4999     0.2427    -0.8111 N.ar    
   5 C5             1.3546     2.2267    -0.2364 C.ar    
   6 C6             1.5104     3.4570     0.5171 C.2     
   7 C7             2.4928     1.4121    -0.1670 C.ar    
   8 S8             3.7250     2.1824     0.8223 S.3     
   9 C9             2.7118     3.5783     1.1344 C.2     
  10 C10           -0.9999     2.5697    -1.1313 C.3     
  11 C11           -0.7562    -0.0106    -2.4419 C.3     
  12 N12            0.5179     4.4243     0.5985 N.pl3   
  13 C13            3.1102     4.7236     1.9514 C.2     
  14 O14            2.3404     5.6527     2.1138 O.2     
  15 N15            4.3297     4.7507     2.5248 N.am    
  16 C16            5.0757     5.6831     3.3831 C.3     
  17 C17            5.4973     3.8578     2.5728 C.3     
  18 C18            6.3699     5.1042     2.7947 C.3     
  19 N19            6.8146     5.7588     1.5618 N.am    
  20 S20            8.4323     5.9419     1.2586 S.o2    
  21 C21            9.1135     4.3280     1.0696 C.ar    
  22 C22            9.1557     3.7376    -0.1796 C.ar    
  23 C23            9.6901     2.4714    -0.3280 C.ar    
  24 C24           10.1827     1.7958     0.7728 C.ar    
  25 C25           10.1413     2.3865     2.0219 C.ar    
  26 C26            9.6109     3.6545     2.1695 C.ar    
  27 O27            8.5338     6.5716    -0.0112 O.2     
  28 O28            9.0036     6.4825     2.4421 O.2     
  29 C29           10.7644     0.4150     0.6113 C.3     
  30 H30           -1.6441     2.3852    -0.2716 H       
  31 H31           -0.7456     3.6287    -1.1742 H       
  32 H32           -1.5220     2.2841    -2.0445 H       
  33 H33           -0.6493     0.3210    -3.4747 H       
  34 H34           -0.7433    -1.1000    -2.4068 H       
  35 H35           -1.7008     0.3547    -2.0389 H       
  36 H36           -0.4028     4.1923     0.4002 H       
  37 H37            0.7452     5.3322     0.8537 H       
  38 H38            4.9141     6.7308     3.1292 H       
  39 H39            4.9558     5.4836     4.4479 H       
  40 H40            5.4885     3.1771     3.4240 H       
  41 H41            5.6948     3.3503     1.6286 H       
  42 H42            7.1685     4.9642     3.5231 H       
  43 H43            6.1615     6.0849     0.9230 H       
  44 H44            8.7708     4.2654    -1.0397 H       
  45 H45            9.7224     2.0098    -1.3038 H       
  46 H46           10.5259     1.8586     2.8820 H       
  47 H47            9.5819     4.1176     3.1448 H       
  48 H48           11.8326     0.4921     0.4087 H       
  49 H49           10.6085    -0.1544     1.5276 H       
  50 H50           10.2728    -0.0915    -0.2193 H       
@<TRIPOS>BOND
   1    1    2 ar
   2    1    5 ar
   3    1   10 1
   4    2   11 1
   5    2    3 ar
   6    3    4 ar
   7    4    7 ar
   8    5    7 ar
   9    5    6 1
  10    6    9 2
  11    6   12 1
  12    7    8 1
  13    8    9 1
  14    9   13 1
  15   10   30 1
  16   10   31 1
  17   10   32 1
  18   11   33 1
  19   11   34 1
  20   11   35 1
  21   12   36 1
  22   12   37 1
  23   13   14 2
  24   13   15 am
  25   15   16 1
  26   15   17 1
  27   16   18 1
  28   16   38 1
  29   16   39 1
  30   17   18 1
  31   17   40 1
  32   17   41 1
  33   18   19 1
  34   18   42 1
  35   19   20 am
  36   19   43 1
  37   20   21 1
  38   20   27 2
  39   20   28 2
  40   21   22 ar
  41   21   26 ar
  42   22   23 ar
  43   22   44 1
  44   23   24 ar
  45   23   45 1
  46   24   25 ar
  47   24   29 1
  48   25   26 ar
  49   25   46 1
  50   26   47 1
  51   29   48 1
  52   29   49 1
  53   29   50 1

#	End of record

