#	Name: ASD08070350
#	Creating user name:	WinNT
#	Creation time:	15. 06. 2019 21:14

#	Modifying user name:	WinNT
#	Modification time:	15. 06. 2019 21:14

#	Program:	/corina/corina34_cracker 3.40 0067  02.08.2006

@<TRIPOS>MOLECULE
ASD08070350
  33   35    0    0    0
SMALL
NO_CHARGES


@<TRIPOS>ATOM
   1 O1            -0.0160     1.3323     0.0094 O.3     
   2 C2             0.0021    -0.0041     0.0020 C.2     
   3 C3             1.3022    -0.4169    -0.0126 C.2     
   4 C4             2.1079     0.8128    -0.0137 C.2     
   5 C5             1.2311     1.8283     0.0001 C.2     
   6 C6             1.7959    -1.8055    -0.0248 C.2     
   7 O7             2.9919    -2.0256    -0.0369 O.2     
   8 N8             0.9219    -2.8315    -0.0225 N.am    
   9 C9             1.4126    -4.2118    -0.0345 C.3     
  10 C10            0.3445    -5.1208    -0.6392 C.3     
  11 C11            0.7832    -6.5772    -0.4454 C.3     
  12 C12            0.6875    -6.9151     1.0410 C.3     
  13 C13            1.4047    -5.8795     1.8669 C.ar    
  14 C14            1.7361    -6.2110     3.1745 C.ar    
  15 C15            2.3890    -5.3046     3.9836 C.ar    
  16 C16            2.7167    -4.0553     3.4900 C.ar    
  17 C17            2.3905    -3.7250     2.1911 C.ar    
  18 C18            1.7343    -4.6370     1.3743 C.ar    
  19 H19           -0.8652    -0.6477     0.0068 H       
  20 H20            3.1855     0.8842    -0.0231 H       
  21 H21            1.4878     2.8774     0.0030 H       
  22 H22           -0.0320    -2.6560    -0.0128 H       
  23 H23            2.3164    -4.2660    -0.6415 H       
  24 H24           -0.6076    -4.9540    -0.1355 H       
  25 H25            0.2400    -4.9073    -1.7030 H       
  26 H26            0.1283    -7.2367    -1.0148 H       
  27 H27            1.8121    -6.6989    -0.7842 H       
  28 H28           -0.3614    -6.9465     1.3357 H       
  29 H29            1.1392    -7.8914     1.2174 H       
  30 H30            1.4801    -7.1865     3.5610 H       
  31 H31            2.6436    -5.5698     4.9991 H       
  32 H32            3.2261    -3.3405     4.1193 H       
  33 H33            2.6468    -2.7489     1.8063 H       
@<TRIPOS>BOND
   1    1    2 1
   2    1    5 1
   3    2    3 2
   4    2   19 1
   5    3    4 1
   6    3    6 1
   7    4    5 2
   8    4   20 1
   9    5   21 1
  10    6    7 2
  11    6    8 am
  12    8    9 1
  13    8   22 1
  14    9   10 1
  15    9   18 1
  16    9   23 1
  17   10   11 1
  18   10   24 1
  19   10   25 1
  20   11   12 1
  21   11   26 1
  22   11   27 1
  23   12   13 1
  24   12   28 1
  25   12   29 1
  26   13   14 ar
  27   13   18 ar
  28   14   15 ar
  29   14   30 1
  30   15   16 ar
  31   15   31 1
  32   16   17 ar
  33   16   32 1
  34   17   18 ar
  35   17   33 1

#	End of record

