#	Name: ASD09800064
#	Creating user name:	WinNT
#	Creation time:	15. 06. 2019 21:24

#	Modifying user name:	WinNT
#	Modification time:	15. 06. 2019 21:24

#	Program:	/corina/corina34_cracker 3.40 0067  02.08.2006

@<TRIPOS>MOLECULE
ASD09800064
  62   67    0    0    0
SMALL
NO_CHARGES


@<TRIPOS>ATOM
   1 C1            -0.0169     1.3928     0.0097 C.ar    
   2 C2             0.0021    -0.0041     0.0020 C.ar    
   3 C3             1.2105    -0.6725    -0.0131 C.ar    
   4 C4             2.4077     0.0370    -0.0203 C.ar    
   5 C5             2.4015     1.4156    -0.0123 C.ar    
   6 C6            -0.5087     3.5117     0.0224 C.2     
   7 N7            -1.0155     2.3137     0.0187 N.2     
   8 C8             1.1961     2.1017     0.0019 C.ar    
   9 N9             0.8532     3.4436     0.0116 N.pl3   
  10 C10            1.7361     4.5237     0.0117 C.ar    
  11 C11            3.9141     5.2983    -0.0066 C.ar    
  12 N12            3.0318     4.2944    -0.0055 N.ar    
  13 C13            1.2225     5.8268     0.0242 C.ar    
  14 C14            2.0733     6.8918     0.0240 C.ar    
  15 C15            3.4600     6.6386     0.0109 C.ar    
  16 C16            4.3912     7.6897     0.0103 C.ar    
  17 C17            5.7251     7.4158    -0.0073 C.ar    
  18 C18            6.1861     6.1026    -0.0252 C.ar    
  19 C19            5.3033     5.0448    -0.0255 C.ar    
  20 N20            5.7782     3.7332    -0.0436 N.3     
  21 C21            6.5876     3.4830    -1.2430 C.3     
  22 C22            6.9687     2.0021    -1.3030 C.3     
  23 C23            7.7590     1.6320    -0.0448 C.3     
  24 C24            6.9123     1.9473     1.1914 C.3     
  25 C25            6.5328     3.4299     1.1791 C.3     
  26 N26            8.0773     0.1981    -0.0691 N.3     
  27 O27            1.2306    -2.0320    -0.0206 O.3     
  28 C28            2.5133    -2.6617    -0.0362 C.3     
  29 C29            2.3353    -4.1813    -0.0427 C.3     
  30 C30            3.6625    -4.9630    -0.0596 C.3     
  31 O31            3.0431    -5.8140     0.9257 O.3     
  32 C32            2.1255    -4.7890     1.3571 C.3     
  33 C33            1.3230    -4.6603    -1.0851 C.3     
  34 H34           -0.9245    -0.5590     0.0082 H       
  35 H35            3.3472    -0.4956    -0.0317 H       
  36 H36            3.3339     1.9605    -0.0172 H       
  37 H37           -1.0826     4.4265     0.0291 H       
  38 H38            0.1546     5.9874     0.0337 H       
  39 H39            1.6948     7.9032     0.0332 H       
  40 H40            4.0498     8.7142     0.0233 H       
  41 H41            6.4355     8.2293    -0.0077 H       
  42 H42            7.2488     5.9105    -0.0393 H       
  43 H43            6.0125     3.7463    -2.1307 H       
  44 H44            7.4924     4.0895    -1.2035 H       
  45 H45            6.0647     1.3955    -1.3565 H       
  46 H46            7.5826     1.8197    -2.1851 H       
  47 H47            8.6822     2.2105    -0.0112 H       
  48 H48            6.0073     1.3399     1.1772 H       
  49 H49            7.4858     1.7259     2.0914 H       
  50 H50            7.4379     4.0366     1.2072 H       
  51 H51            5.9179     3.6546     2.0506 H       
  52 H52            8.5991    -0.0704     0.7517 H       
  53 H53            7.2397    -0.3567    -0.1626 H       
  54 H54            3.0574    -2.3558    -0.9298 H       
  55 H55            3.0744    -2.3654     0.8500 H       
  56 H56            3.8684    -5.4620    -1.0065 H       
  57 H57            4.5130    -4.3962     0.3194 H       
  58 H58            2.5066    -4.1691     2.1686 H       
  59 H59            1.1123    -5.1500     1.5338 H       
  60 H60            1.7344    -4.5162    -2.0842 H       
  61 H61            1.1125    -5.7181    -0.9280 H       
  62 H62            0.4008    -4.0876    -0.9859 H       
@<TRIPOS>BOND
   1    1    2 ar
   2    1    8 ar
   3    1    7 1
   4    2    3 ar
   5    2   34 1
   6    3    4 ar
   7    3   27 1
   8    4    5 ar
   9    4   35 1
  10    5    8 ar
  11    5   36 1
  12    6    7 2
  13    6    9 1
  14    6   37 1
  15    8    9 1
  16    9   10 1
  17   10   13 ar
  18   10   12 ar
  19   11   12 ar
  20   11   15 ar
  21   11   19 ar
  22   13   14 ar
  23   13   38 1
  24   14   15 ar
  25   14   39 1
  26   15   16 ar
  27   16   17 ar
  28   16   40 1
  29   17   18 ar
  30   17   41 1
  31   18   19 ar
  32   18   42 1
  33   19   20 1
  34   20   21 1
  35   20   25 1
  36   21   22 1
  37   21   43 1
  38   21   44 1
  39   22   23 1
  40   22   45 1
  41   22   46 1
  42   23   24 1
  43   23   26 1
  44   23   47 1
  45   24   25 1
  46   24   48 1
  47   24   49 1
  48   25   50 1
  49   25   51 1
  50   26   52 1
  51   26   53 1
  52   27   28 1
  53   28   29 1
  54   28   54 1
  55   28   55 1
  56   29   30 1
  57   29   33 1
  58   29   32 1
  59   30   31 1
  60   30   56 1
  61   30   57 1
  62   31   32 1
  63   32   58 1
  64   32   59 1
  65   33   60 1
  66   33   61 1
  67   33   62 1

#	End of record

