#	Name: ASD04170024
#	Creating user name:	WinNT
#	Creation time:	15. 06. 2019 20:48

#	Modifying user name:	WinNT
#	Modification time:	15. 06. 2019 20:48

#	Program:	/corina/corina34_cracker 3.40 0067  02.08.2006

@<TRIPOS>MOLECULE
ASD04170024
  39   41    0    0    0
SMALL
NO_CHARGES


@<TRIPOS>ATOM
   1 O1            -0.1462     0.2477     1.1188 O.2     
   2 C2            -0.0924     1.3437     0.5959 C.2     
   3 C3             1.1794     2.0976     0.5886 C.ar    
   4 C4             2.3200     1.5537     1.1813 C.ar    
   5 C5             3.5036     2.2625     1.1711 C.ar    
   6 C6             3.5613     3.5100     0.5755 C.ar    
   7 C7             2.4342     4.0551    -0.0134 C.ar    
   8 C8             1.2460     3.3539    -0.0159 C.ar    
   9 N9            -1.1906     1.8693     0.0179 N.am    
  10 C10           -2.4493     1.1196     0.0198 C.3     
  11 C11           -3.5235     1.9295     0.7514 C.3     
  12 C12           -3.8265     3.2002    -0.0588 C.3     
  13 C13           -2.4768     3.8502    -0.4413 C.3     
  14 C14           -2.0869     3.1921    -1.7812 C.3     
  15 C15           -3.2363     2.2042    -2.0865 C.3     
  16 C16           -2.8904     0.8611    -1.4238 C.3     
  17 N17           -4.4047     2.7668    -1.3585 N.4     
  18 C18           -4.9627     3.9152    -2.0850 C.3     
  19 H19            2.2761     0.5804     1.6471 H       
  20 H20            4.3869     1.8428     1.6293 H       
  21 H21            4.4902     4.0609     0.5706 H       
  22 H22            2.4857     5.0296    -0.4760 H       
  23 H23            0.3669     3.7804    -0.4760 H       
  24 H24           -1.1477     2.7439    -0.3994 H       
  25 H25           -2.3033     0.1673     0.5295 H       
  26 H26           -4.4301     1.3320     0.8458 H       
  27 H27           -3.1613     2.2057     1.7416 H       
  28 H28           -4.4760     3.8875     0.4833 H       
  29 H29           -2.5964     4.9262    -0.5678 H       
  30 H30           -1.7247     3.6380     0.3186 H       
  31 H31           -2.0147     3.9445    -2.5665 H       
  32 H32           -1.1430     2.6563    -1.6801 H       
  33 H33           -3.4167     2.0997    -3.1563 H       
  34 H34           -2.0802     0.3811    -1.9727 H       
  35 H35           -3.7686     0.2154    -1.4271 H       
  36 H36           -5.1089     2.0585    -1.2156 H       
  37 H37           -5.2846     3.5964    -3.0764 H       
  38 H38           -5.8165     4.3124    -1.5361 H       
  39 H39           -4.2011     4.6889    -2.1817 H       
@<TRIPOS>BOND
   1    1    2 2
   2    2    3 1
   3    2    9 am
   4    3    4 ar
   5    3    8 ar
   6    4    5 ar
   7    4   19 1
   8    5    6 ar
   9    5   20 1
  10    6    7 ar
  11    6   21 1
  12    7    8 ar
  13    7   22 1
  14    8   23 1
  15    9   10 1
  16    9   24 1
  17   10   11 1
  18   10   16 1
  19   10   25 1
  20   11   12 1
  21   11   26 1
  22   11   27 1
  23   12   13 1
  24   12   17 1
  25   12   28 1
  26   13   14 1
  27   13   29 1
  28   13   30 1
  29   14   15 1
  30   14   31 1
  31   14   32 1
  32   15   16 1
  33   15   17 1
  34   15   33 1
  35   16   34 1
  36   16   35 1
  37   17   18 1
  38   17   36 1
  39   18   37 1
  40   18   38 1
  41   18   39 1

#	End of record

