#	Name: ASD02508025
#	Creating user name:	WinNT
#	Creation time:	15. 06. 2019 20:23

#	Modifying user name:	WinNT
#	Modification time:	15. 06. 2019 20:23

#	Program:	/corina/corina34_cracker 3.40 0067  02.08.2006

@<TRIPOS>MOLECULE
ASD02508025
  58   61    0    0    0
SMALL
NO_CHARGES


@<TRIPOS>ATOM
   1 C1            -0.8341     1.4213    -0.1200 C.3     
   2 C2            -0.6972    -0.0419    -0.0475 C.3     
   3 C3             0.0665    -0.4834     1.2123 C.3     
   4 N4             1.4660    -0.2720     0.9781 N.am    
   5 C5             2.1568     0.9809     1.3890 C.3     
   6 C6             1.2294     2.1920     1.1209 C.3     
   7 N7             0.5010     2.0648    -0.1103 N.am    
   8 C8             1.1450     5.3420    -1.1618 C.ar    
   9 C9             0.5237     4.2645    -1.7642 C.ar    
  10 C10            0.6511     6.6241    -1.3517 C.ar    
  11 C11           -0.4681     6.8221    -2.1514 C.ar    
  12 C12           -1.0873     5.7363    -2.7525 C.ar    
  13 C13           -0.5910     4.4613    -2.5579 C.ar    
  14 O14           -0.9647     8.0726    -2.3572 O.3     
  15 C15            3.0909    -0.4809    -2.2077 C.ar    
  16 C16            2.1574    -1.2248    -1.5096 C.ar    
  17 C17            2.9497    -0.2945    -3.5689 C.ar    
  18 C18            1.8686    -0.8550    -4.2364 C.ar    
  19 C19            0.9330    -1.6019    -3.5325 C.ar    
  20 C20            1.0800    -1.7846    -2.1715 C.ar    
  21 O21            1.2692     7.6747    -0.7462 O.3     
  22 C22            0.9730     8.9783    -1.2589 C.3     
  23 C23           -0.5469     9.0897    -1.4402 C.3     
  24 S24            1.1537     2.6371    -1.5206 S.o2    
  25 O25            2.5487     2.7773    -1.2892 O.2     
  26 O26            0.6157     1.8380    -2.5651 O.2     
  27 S27            2.3413    -1.4602     0.2269 S.o2    
  28 O28            3.7066    -1.2019     0.5245 O.2     
  29 O29            1.6975    -2.6888     0.5356 O.2     
  30 N30            1.7223    -0.6677    -5.6153 N.am    
  31 O31            3.9201    -0.6607    -5.9182 O.2     
  32 C32            2.8113    -0.6167    -6.4078 C.2     
  33 C33            2.6513    -0.5051    -7.9021 C.3     
  34 H34           -1.3572     1.6896    -1.0379 H       
  35 H35           -1.4100     1.7726     0.7361 H       
  36 H36           -1.6903    -0.4913    -0.0363 H       
  37 H37           -0.1605    -0.3924    -0.9290 H       
  38 H38           -0.2579     0.1102     2.0670 H       
  39 H39           -0.1195    -1.5401     1.4048 H       
  40 H40            2.3944     0.9333     2.4518 H       
  41 H41            3.0768     1.0937     0.8155 H       
  42 H42            0.5193     2.2811     1.9431 H       
  43 H43            1.8347     3.0975     1.0806 H       
  44 H44            2.0133     5.1851    -0.5390 H       
  45 H45           -1.9584     5.8873    -3.3727 H       
  46 H46           -1.0745     3.6172    -3.0271 H       
  47 H47            3.9291    -0.0416    -1.6872 H       
  48 H48            3.6790     0.2868    -4.1135 H       
  49 H49            0.0909    -2.0387    -4.0488 H       
  50 H50            0.3529    -2.3656    -1.6236 H       
  51 H51            1.3157     9.7367    -0.5551 H       
  52 H52            1.4689     9.1168    -2.2197 H       
  53 H53           -0.7983    10.0717    -1.8409 H       
  54 H54           -1.0431     8.9456    -0.4804 H       
  55 H55            0.8371    -0.5745    -6.0009 H       
  56 H56            2.6199     0.5466    -8.1866 H       
  57 H57            3.4940    -0.9898    -8.3949 H       
  58 H58            1.7242    -0.9914    -8.2055 H       
@<TRIPOS>BOND
   1    1    2 1
   2    1    7 1
   3    1   34 1
   4    1   35 1
   5    2    3 1
   6    2   36 1
   7    2   37 1
   8    3    4 1
   9    3   38 1
  10    3   39 1
  11    4    5 1
  12    4   27 am
  13    5    6 1
  14    5   40 1
  15    5   41 1
  16    6    7 1
  17    6   42 1
  18    6   43 1
  19    7   24 am
  20    8    9 ar
  21    8   10 ar
  22    8   44 1
  23    9   24 1
  24    9   13 ar
  25   10   11 ar
  26   10   21 1
  27   11   12 ar
  28   11   14 1
  29   12   13 ar
  30   12   45 1
  31   13   46 1
  32   14   23 1
  33   15   16 ar
  34   15   17 ar
  35   15   47 1
  36   16   27 1
  37   16   20 ar
  38   17   18 ar
  39   17   48 1
  40   18   19 ar
  41   18   30 1
  42   19   20 ar
  43   19   49 1
  44   20   50 1
  45   21   22 1
  46   22   23 1
  47   22   51 1
  48   22   52 1
  49   23   53 1
  50   23   54 1
  51   24   25 2
  52   24   26 2
  53   27   28 2
  54   27   29 2
  55   30   32 am
  56   30   55 1
  57   31   32 2
  58   32   33 1
  59   33   56 1
  60   33   57 1
  61   33   58 1

#	End of record

