#	Name: ASD01890338
#	Creating user name:	WinNT
#	Creation time:	15. 06. 2019 19:50

#	Modifying user name:	WinNT
#	Modification time:	15. 06. 2019 19:50

#	Program:	/corina/corina34_cracker 3.40 0067  02.08.2006

@<TRIPOS>MOLECULE
ASD01890338
  30   32    0    0    0
SMALL
NO_CHARGES


@<TRIPOS>ATOM
   1 O1            -0.0221     1.3465    -0.0806 O.3     
   2 C2            -0.0002    -0.0019    -0.0321 C.2     
   3 C3             1.2882    -0.4399    -0.0267 C.2     
   4 C4             2.1231     0.7586    -0.0768 C.ar    
   5 C5             1.2289     1.8460    -0.1088 C.ar    
   6 C6             3.5017     0.9849    -0.0961 C.ar    
   7 C7             3.9772     2.2650    -0.1462 C.ar    
   8 C8             3.1001     3.3404    -0.1779 C.ar    
   9 C9             1.7365     3.1386    -0.1595 C.ar    
  10 C10            5.4638     2.5109    -0.1666 C.3     
  11 C11           -1.1863    -0.8652     0.0092 C.2     
  12 C12           -2.5321    -0.2668     0.1368 C.ar    
  13 C13           -3.6695    -1.0711     0.0395 C.ar    
  14 C14           -4.9221    -0.5062     0.1595 C.ar    
  15 C15           -5.0532     0.8543     0.3758 C.ar    
  16 C16           -3.9303     1.6572     0.4733 C.ar    
  17 C17           -2.6715     1.1045     0.3610 C.ar    
  18 O18           -1.0620    -2.0736    -0.0616 O.2     
  19 H19            1.6254    -1.4653     0.0079 H       
  20 H20            4.1885     0.1518    -0.0713 H       
  21 H21            3.4904     4.3466    -0.2174 H       
  22 H22            1.0641     3.9834    -0.1846 H       
  23 H23            5.8143     2.5330    -1.1985 H       
  24 H24            5.6807     3.4663     0.3113 H       
  25 H25            5.9718     1.7114     0.3726 H       
  26 H26           -3.5686    -2.1330    -0.1297 H       
  27 H27           -5.8026    -1.1270     0.0840 H       
  28 H28           -6.0363     1.2916     0.4687 H       
  29 H29           -4.0397     2.7183     0.6419 H       
  30 H30           -1.7959     1.7314     0.4421 H       
@<TRIPOS>BOND
   1    1    2 1
   2    1    5 1
   3    2    3 2
   4    2   11 1
   5    3    4 1
   6    3   19 1
   7    4    5 ar
   8    4    6 ar
   9    5    9 ar
  10    6    7 ar
  11    6   20 1
  12    7    8 ar
  13    7   10 1
  14    8    9 ar
  15    8   21 1
  16    9   22 1
  17   10   23 1
  18   10   24 1
  19   10   25 1
  20   11   12 1
  21   11   18 2
  22   12   13 ar
  23   12   17 ar
  24   13   14 ar
  25   13   26 1
  26   14   15 ar
  27   14   27 1
  28   15   16 ar
  29   15   28 1
  30   16   17 ar
  31   16   29 1
  32   17   30 1

#	End of record

