#	Name: ASD09116068
#	Creating user name:	WinNT
#	Creation time:	15. 06. 2019 21:20

#	Modifying user name:	WinNT
#	Modification time:	15. 06. 2019 21:20

#	Program:	/corina/corina34_cracker 3.40 0067  02.08.2006

@<TRIPOS>MOLECULE
ASD09116068
  69   73    0    0    0
SMALL
NO_CHARGES


@<TRIPOS>ATOM
   1 C1            -0.0668     1.3932    -0.3083 C.ar    
   2 N2            -0.0346     0.0021    -0.2550 N.pl3   
   3 N3            -1.1343    -0.8613    -0.1242 N.2     
   4 C4            -0.6626    -2.0846    -0.1168 C.2     
   5 N5             0.6698    -2.0422    -0.2353 N.2     
   6 C6             1.0677    -0.7914    -0.3252 C.2     
   7 N7             2.3734    -0.3604    -0.4586 N.pl3   
   8 N8            -1.4273    -3.2452    -0.0027 N.pl3   
   9 N9             1.0701     2.0591    -0.4350 N.ar    
  10 N10           -1.2374     2.0150    -0.2363 N.ar    
  11 C11           -1.2894     3.3281    -0.2830 C.ar    
  12 C12           -0.1174     4.0595    -0.4222 C.ar    
  13 C13            1.0834     3.3834    -0.4960 C.ar    
  14 C14           -2.5772     4.0989    -0.1728 C.3     
  15 C15           -3.1209     4.4893    -1.5100 C.3     
  16 C16           -2.5023     5.6791    -2.2172 C.3     
  17 C17           -1.1358     5.2978    -2.8151 C.3     
  18 C18           -0.0358     5.9873    -1.9605 C.3     
  19 C19           -0.2026     5.5576    -0.5038 C.3     
  20 C20           -0.8174    -4.5002    -0.1217 C.ar    
  21 C21           -1.3413    -5.5938     0.5552 C.ar    
  22 C22           -0.7399    -6.8312     0.4379 C.ar    
  23 C23            0.3891    -6.9820    -0.3565 C.ar    
  24 C24            0.9133    -5.8883    -1.0330 C.ar    
  25 C25            0.3080    -4.6523    -0.9211 C.ar    
  26 N26            0.9990    -8.2362    -0.4750 N.3     
  27 C27            2.1708    -8.1704    -1.3585 C.3     
  28 C28            0.0387    -9.2469    -0.9380 C.3     
  29 C29            0.6926   -10.6317    -0.8813 C.3     
  30 N30            1.9555   -10.5831    -1.6335 N.am    
  31 C31            2.9120    -9.5110    -1.3190 C.3     
  32 C32            2.2293   -11.4972    -2.5854 C.2     
  33 O33            1.4276   -12.3764    -2.8319 O.2     
  34 O34            3.3910   -11.4360    -3.2632 O.3     
  35 C35            3.6187   -12.4531    -4.2741 C.3     
  36 C36            4.9803   -12.2219    -4.9325 C.3     
  37 H37            3.0962    -1.0064    -0.4931 H       
  38 H38            2.5674     0.5881    -0.5177 H       
  39 H39           -2.3817    -3.1832     0.1590 H       
  40 H40            2.0143     3.9217    -0.5971 H       
  41 H41           -3.3145     3.4833     0.3424 H       
  42 H42           -2.4003     5.0005     0.4137 H       
  43 H43           -3.0278     3.6268    -2.1699 H       
  44 H44           -4.1847     4.6932    -1.3880 H       
  45 H45           -3.1662     6.0085    -3.0165 H       
  46 H46           -2.3695     6.4930    -1.5045 H       
  47 H47           -1.0064     4.2160    -2.7805 H       
  48 H48           -1.0740     5.6451    -3.8464 H       
  49 H49            0.9482     5.6862    -2.3198 H       
  50 H50           -0.1393     7.0697    -2.0362 H       
  51 H51           -1.1736     5.8882    -0.1350 H       
  52 H52            0.5888     6.0013     0.1002 H       
  53 H53           -2.2189    -5.4764     1.1736 H       
  54 H54           -1.1473    -7.6816     0.9643 H       
  55 H55            1.7917    -6.0054    -1.6503 H       
  56 H56            0.7154    -3.8018    -1.4475 H       
  57 H57            1.8463    -7.9641    -2.3784 H       
  58 H58            2.8369    -7.3764    -1.0207 H       
  59 H59           -0.8415    -9.2337    -0.2952 H       
  60 H60           -0.2561    -9.0256    -1.9637 H       
  61 H61            0.8942   -10.8992     0.1560 H       
  62 H62            0.0273   -11.3693    -1.3299 H       
  63 H63            3.7141    -9.5078    -2.0571 H       
  64 H64            3.3270    -9.6708    -0.3239 H       
  65 H65            3.6030   -13.4384    -3.8082 H       
  66 H66            2.8353   -12.3960    -5.0299 H       
  67 H67            5.1513   -12.9854    -5.6914 H       
  68 H68            4.9961   -11.2366    -5.3984 H       
  69 H69            5.7637   -12.2790    -4.1767 H       
@<TRIPOS>BOND
   1    1    2 1
   2    1    9 ar
   3    1   10 ar
   4    2    3 1
   5    2    6 1
   6    3    4 2
   7    4    5 1
   8    4    8 1
   9    5    6 2
  10    6    7 1
  11    7   37 1
  12    7   38 1
  13    8   20 1
  14    8   39 1
  15    9   13 ar
  16   10   11 ar
  17   11   12 ar
  18   11   14 1
  19   12   13 ar
  20   12   19 1
  21   13   40 1
  22   14   15 1
  23   14   41 1
  24   14   42 1
  25   15   16 1
  26   15   43 1
  27   15   44 1
  28   16   17 1
  29   16   45 1
  30   16   46 1
  31   17   18 1
  32   17   47 1
  33   17   48 1
  34   18   19 1
  35   18   49 1
  36   18   50 1
  37   19   51 1
  38   19   52 1
  39   20   21 ar
  40   20   25 ar
  41   21   22 ar
  42   21   53 1
  43   22   23 ar
  44   22   54 1
  45   23   24 ar
  46   23   26 1
  47   24   25 ar
  48   24   55 1
  49   25   56 1
  50   26   27 1
  51   26   28 1
  52   27   31 1
  53   27   57 1
  54   27   58 1
  55   28   29 1
  56   28   59 1
  57   28   60 1
  58   29   30 1
  59   29   61 1
  60   29   62 1
  61   30   31 1
  62   30   32 am
  63   31   63 1
  64   31   64 1
  65   32   33 2
  66   32   34 1
  67   34   35 1
  68   35   36 1
  69   35   65 1
  70   35   66 1
  71   36   67 1
  72   36   68 1
  73   36   69 1

#	End of record

