#	Name: ASD07930698
#	Creating user name:	WinNT
#	Creation time:	15. 06. 2019 21:13

#	Modifying user name:	WinNT
#	Modification time:	15. 06. 2019 21:13

#	Program:	/corina/corina34_cracker 3.40 0067  02.08.2006

@<TRIPOS>MOLECULE
ASD07930698
  43   45    0    0    0
SMALL
NO_CHARGES


@<TRIPOS>ATOM
   1 C1            -0.0178     1.4608     0.0101 C.3     
   2 N2             0.8031    -0.4153    -2.1619 N.2     
   3 N3            -0.8796    -1.7833    -1.2911 N.pl3   
   4 C4            -0.9005    -2.8248    -0.2586 C.3     
   5 C5            -1.2102    -2.1834     1.1010 C.3     
   6 S6             0.0275    -0.8859     1.4156 S.o2    
   7 N7             0.0021    -0.0041     0.0020 N.am    
   8 C8             0.0002    -0.7257    -1.1832 C.2     
   9 C9             0.4646    -3.5132    -0.1997 C.3     
  10 O10           -0.4323     0.0192     2.4099 O.2     
  11 O11            1.3354    -1.4387     1.4687 O.2     
  12 C12           -1.9634    -3.8404    -0.5898 C.2     
  13 C13           -2.3586    -4.1648    -1.8242 C.2     
  14 S14           -2.8652    -4.7825     0.5900 S.3     
  15 C15           -3.7634    -5.5855    -0.6915 C.2     
  16 C16           -3.3492    -5.1230    -1.8879 C.2     
  17 C17           -4.8069    -6.6127    -0.4880 C.ar    
  18 C18           -5.1488    -7.0176     0.8032 C.ar    
  19 C19           -6.1234    -7.9769     0.9895 C.ar    
  20 C20           -6.7631    -8.5390    -0.0995 C.ar    
  21 C21           -6.4292    -8.1427    -1.3879 C.ar    
  22 C22           -5.4574    -7.1767    -1.5858 C.ar    
  23 O23           -7.0611    -8.6990    -2.4548 O.3     
  24 C24           -8.0577    -9.6847    -2.1770 C.3     
  25 F25           -9.0694    -9.1175    -1.3948 F       
  26 F26           -8.6025   -10.1488    -3.3791 F       
  27 F27           -7.4769   -10.7530    -1.4851 F       
  28 H28            1.0048     1.8381     0.0023 H       
  29 H29           -0.5450     1.8219    -0.8730 H       
  30 H30           -0.5280     1.8123     0.9069 H       
  31 H31            0.7883    -0.9307    -2.9835 H       
  32 H32           -1.4804    -1.8399    -2.0505 H       
  33 H33           -2.2071    -1.7432     1.0811 H       
  34 H34           -1.1573    -2.9394     1.8845 H       
  35 H35            1.2322    -2.7780     0.0418 H       
  36 H36            0.4485    -4.2871     0.5677 H       
  37 H37            0.6857    -3.9650    -1.1667 H       
  38 H38           -1.9342    -3.7102    -2.7072 H       
  39 H39           -3.7617    -5.4734    -2.8225 H       
  40 H40           -4.6507    -6.5807     1.6561 H       
  41 H41           -6.3869    -8.2896     1.9891 H       
  42 H42           -7.5250    -9.2892     0.0523 H       
  43 H43           -5.1968    -6.8677    -2.5873 H       
@<TRIPOS>BOND
   1    1    7 1
   2    1   28 1
   3    1   29 1
   4    1   30 1
   5    2    8 2
   6    2   31 1
   7    3    4 1
   8    3    8 1
   9    3   32 1
  10    4    5 1
  11    4    9 1
  12    4   12 1
  13    5    6 1
  14    5   33 1
  15    5   34 1
  16    6    7 am
  17    6   10 2
  18    6   11 2
  19    7    8 1
  20    9   35 1
  21    9   36 1
  22    9   37 1
  23   12   14 1
  24   12   13 2
  25   13   16 1
  26   13   38 1
  27   14   15 1
  28   15   16 2
  29   15   17 1
  30   16   39 1
  31   17   18 ar
  32   17   22 ar
  33   18   19 ar
  34   18   40 1
  35   19   20 ar
  36   19   41 1
  37   20   21 ar
  38   20   42 1
  39   21   22 ar
  40   21   23 1
  41   22   43 1
  42   23   24 1
  43   24   25 1
  44   24   26 1
  45   24   27 1

#	End of record

