#	Name: ASD01148640
#	Creating user name:	WinNT
#	Creation time:	15. 06. 2019 19:02

#	Modifying user name:	WinNT
#	Modification time:	15. 06. 2019 19:02

#	Program:	/corina/corina34_cracker 3.40 0067  02.08.2006

@<TRIPOS>MOLECULE
ASD01148640
  55   58    0    0    0
SMALL
NO_CHARGES


@<TRIPOS>ATOM
   1 C1            -0.0169     1.4355    -0.0252 C.ar    
   2 C2             0.0192     0.0537    -0.0358 C.ar    
   3 C3            -1.1593    -0.6686    -0.0208 C.ar    
   4 C4            -2.3739    -0.0091     0.0054 C.ar    
   5 C5            -2.4100     1.3727     0.0170 C.ar    
   6 C6            -1.2314     2.0950     0.0064 C.ar    
   7 C7            -3.7342     2.0916     0.0451 C.3     
   8 O8            -4.7238     1.3228     0.7585 O.3     
   9 C9            -3.6497     3.3741     0.9066 C.3     
  10 C10           -4.1236     2.8913     2.2643 C.2     
  11 N11           -4.7055     1.7481     2.1068 N.2     
  12 C12           -3.9497     3.6024     3.5424 C.ar    
  13 C13           -4.4574     3.0205     4.7825 C.ar    
  14 C14           -3.2973     4.8272     3.5771 C.ar    
  15 C15           -3.1191     5.5165     4.7632 C.ar    
  16 C16           -3.5856     5.0131     5.9703 C.ar    
  17 C17           -4.2759     3.7255     5.9958 C.ar    
  18 C18           -3.3812     5.7697     7.2178 C.2     
  19 O19           -3.8824     5.3795     8.2544 O.2     
  20 N20           -2.6386     6.8943     7.2099 N.am    
  21 C21           -4.7627     3.1793     7.1898 C.ar    
  22 C22           -5.1167     1.7847     4.7953 C.ar    
  23 C23           -4.2091     2.4140    -1.3731 C.3     
  24 F24           -4.3418     1.2271    -2.1016 F       
  25 F25           -5.4457     3.0656    -1.3139 F       
  26 F26           -3.2742     3.2443    -2.0006 F       
  27 C27           -2.4516     7.5865     8.3511 C.2     
  28 O28           -1.7099     8.7097     8.3432 O.3     
  29 C29           -1.5510     9.4036     9.6087 C.3     
  30 O30           -2.9523     7.1966     9.3869 O.2     
  31 C31           -5.5743     1.2780     5.9753 C.ar    
  32 C32           -5.4006     1.9745     7.1683 C.ar    
  33 C33            1.2679     2.2230    -0.0416 C.3     
  34 F34            2.3544     1.3422    -0.0668 F       
  35 F35            1.3012     3.0373    -1.1788 F       
  36 F36            1.3407     3.0207     1.1054 F       
  37 C37           -1.1199    -2.1751    -0.0334 C.3     
  38 F38            0.2106    -2.6066    -0.0603 F       
  39 F39           -1.7468    -2.6676     1.1163 F       
  40 F40           -1.7871    -2.6495    -1.1679 F       
  41 H41            0.9682    -0.4615    -0.0563 H       
  42 H42           -3.2947    -0.5735     0.0165 H       
  43 H43           -1.2596     3.1746     0.0154 H       
  44 H44           -2.6232     3.7365     0.9615 H       
  45 H45           -4.3134     4.1462     0.5173 H       
  46 H46           -2.9202     5.2510     2.6581 H       
  47 H47           -2.6057     6.4665     4.7502 H       
  48 H48           -2.2387     7.2057     6.3828 H       
  49 H49           -4.6332     3.7089     8.1221 H       
  50 H50           -5.2620     1.2369     3.8760 H       
  51 H51           -2.5296     9.7015     9.9852 H       
  52 H52           -1.0710     8.7408    10.3288 H       
  53 H53           -0.9330    10.2895     9.4622 H       
  54 H54           -6.0828     0.3253     5.9842 H       
  55 H55           -5.7757     1.5541     8.0897 H       
@<TRIPOS>BOND
   1    1    2 ar
   2    1   33 1
   3    1    6 ar
   4    2    3 ar
   5    2   41 1
   6    3    4 ar
   7    3   37 1
   8    4    5 ar
   9    4   42 1
  10    5    6 ar
  11    5    7 1
  12    6   43 1
  13    7    8 1
  14    7    9 1
  15    7   23 1
  16    8   11 1
  17    9   10 1
  18    9   44 1
  19    9   45 1
  20   10   11 2
  21   10   12 1
  22   12   13 ar
  23   12   14 ar
  24   13   22 ar
  25   13   17 ar
  26   14   15 ar
  27   14   46 1
  28   15   16 ar
  29   15   47 1
  30   16   17 ar
  31   16   18 1
  32   17   21 ar
  33   18   19 2
  34   18   20 am
  35   20   27 am
  36   20   48 1
  37   21   32 ar
  38   21   49 1
  39   22   31 ar
  40   22   50 1
  41   23   24 1
  42   23   25 1
  43   23   26 1
  44   27   28 1
  45   27   30 2
  46   28   29 1
  47   29   51 1
  48   29   52 1
  49   29   53 1
  50   31   32 ar
  51   31   54 1
  52   32   55 1
  53   33   34 1
  54   33   35 1
  55   33   36 1
  56   37   38 1
  57   37   39 1
  58   37   40 1

#	End of record

