#	Name: ASD03091562
#	Creating user name:	WinNT
#	Creation time:	15. 06. 2019 20:30

#	Modifying user name:	WinNT
#	Modification time:	15. 06. 2019 20:30

#	Program:	/corina/corina34_cracker 3.40 0067  02.08.2006

@<TRIPOS>MOLECULE
ASD03091562
  28   29    0    0    0
SMALL
NO_CHARGES


@<TRIPOS>ATOM
   1 C1            -0.0162     1.3461     0.0094 C.2     
   2 C2             0.0021    -0.0041     0.0020 C.2     
   3 S3            -1.6633    -0.5789     0.0148 S.3     
   4 C4            -2.2426     1.0835     0.0292 C.2     
   5 N5            -1.2338     1.8954     0.0297 N.2     
   6 N6            -3.5737     1.4646     0.0439 N.3     
   7 C7            -4.4580     0.2902     0.0466 C.3     
   8 C8            -3.8599     2.3348     1.1938 C.3     
   9 C9            -5.3237     2.7798     1.1383 C.3     
  10 O10           -6.1670     1.6251     1.1101 O.3     
  11 C11           -5.9159     0.7557     0.0027 C.3     
  12 C12           -6.8427    -0.4588     0.0861 C.3     
  13 C13           -5.6494     3.6202     2.3746 C.3     
  14 C14            1.1813     2.1312     0.0022 C.1     
  15 N15            2.1313     2.7540    -0.0035 N.1     
  16 H16            0.8857    -0.6249    -0.0100 H       
  17 H17           -4.2464    -0.3268    -0.8267 H       
  18 H18           -4.2887    -0.2909     0.9532 H       
  19 H19           -3.6810     1.7865     2.1187 H       
  20 H20           -3.2117     3.2104     1.1578 H       
  21 H21           -5.4898     3.3738     0.2396 H       
  22 H22           -6.0991     1.2908    -0.9291 H       
  23 H23           -7.8804    -0.1265     0.0587 H       
  24 H24           -6.6508    -1.1210    -0.7581 H       
  25 H25           -6.6571    -0.9941     1.0173 H       
  26 H26           -5.0038     4.4981     2.3976 H       
  27 H27           -6.6917     3.9367     2.3346 H       
  28 H28           -5.4849     3.0245     3.2725 H       
@<TRIPOS>BOND
   1    1    2 2
   2    1   14 1
   3    1    5 1
   4    2    3 1
   5    2   16 1
   6    3    4 1
   7    4    5 2
   8    4    6 1
   9    6    7 1
  10    6    8 1
  11    7   11 1
  12    7   17 1
  13    7   18 1
  14    8    9 1
  15    8   19 1
  16    8   20 1
  17    9   10 1
  18    9   13 1
  19    9   21 1
  20   10   11 1
  21   11   12 1
  22   11   22 1
  23   12   23 1
  24   12   24 1
  25   12   25 1
  26   13   26 1
  27   13   27 1
  28   13   28 1
  29   14   15 3

#	End of record

