#	Name: ASD01882348
#	Creating user name:	WinNT
#	Creation time:	15. 06. 2019 19:44

#	Modifying user name:	WinNT
#	Modification time:	15. 06. 2019 19:44

#	Program:	/corina/corina34_cracker 3.40 0067  02.08.2006

@<TRIPOS>MOLECULE
ASD01882348
  46   50    0    0    0
SMALL
NO_CHARGES


@<TRIPOS>ATOM
   1 C1            -0.1225     1.4236     0.1322 C.2     
   2 C2            -0.1123     0.0297     0.3102 C.2     
   3 C3             1.0846    -0.6336     0.3110 C.2     
   4 C4             2.2833     0.0914     0.1337 C.2     
   5 C5             2.2502     1.4276    -0.0353 C.2     
   6 N6             1.0620     2.0984    -0.0377 N.pl3   
   7 N7            -0.5779     3.4937    -0.1036 N.2     
   8 N8            -1.0892     2.3272     0.0790 N.2     
   9 C9             0.7242     3.4120    -0.1823 C.2     
  10 C10           -1.4031    -0.7250     0.4983 C.3     
  11 F11           -1.5926    -0.9930     1.8582 F       
  12 F12           -2.4683     0.0471     0.0223 F       
  13 F13           -1.3466    -1.9295    -0.2110 F       
  14 N14            1.1203    -2.0137     0.4859 N.pl3   
  15 C15            0.5737    -2.9724     1.4580 C.3     
  16 C16            1.7482    -3.9013     1.1208 C.3     
  17 C17            1.7157    -3.1560    -0.2237 C.3     
  18 C18            2.9880    -3.6523     1.9406 C.ar    
  19 C19            3.4196    -4.6026     2.8470 C.ar    
  20 C20            4.5567    -4.3742     3.5991 C.ar    
  21 C21            5.2626    -3.1958     3.4444 C.ar    
  22 C22            4.8315    -2.2459     2.5373 C.ar    
  23 C23            3.6967    -2.4761     1.7822 C.ar    
  24 C24            1.6778     4.5592    -0.3960 C.3     
  25 C25            1.9006     4.7645    -1.8957 C.3     
  26 C26            2.7501     5.9620    -2.3263 C.3     
  27 C27            3.3148     4.5443    -2.4365 C.3     
  28 H28            3.2305    -0.4274     0.1339 H       
  29 H29            3.1727     1.9729    -0.1698 H       
  30 H30            0.5903    -2.6067     2.4847 H       
  31 H31           -0.3965    -3.3773     1.1699 H       
  32 H32            1.4790    -4.9552     1.0518 H       
  33 H33            1.0466    -3.6093    -0.9551 H       
  34 H34            2.7054    -2.9468    -0.6297 H       
  35 H35            2.8681    -5.5233     2.9679 H       
  36 H36            4.8935    -5.1164     4.3078 H       
  37 H37            6.1506    -3.0171     4.0325 H       
  38 H38            5.3827    -1.3250     2.4167 H       
  39 H39            3.3620    -1.7356     1.0708 H       
  40 H40            1.2569     5.4669     0.0364 H       
  41 H41            2.6297     4.3349     0.0853 H       
  42 H42            1.0663     4.4825    -2.5379 H       
  43 H43            2.4749     6.4675    -3.2519 H       
  44 H44            3.1502     6.6035    -1.5411 H       
  45 H45            4.0865     4.2531    -1.7238 H       
  46 H46            3.4111     4.1171    -3.4347 H       
@<TRIPOS>BOND
   1    1    2 1
   2    1    6 1
   3    1    8 2
   4    2    3 2
   5    2   10 1
   6    3    4 1
   7    3   14 1
   8    4    5 2
   9    4   28 1
  10    5    6 1
  11    5   29 1
  12    6    9 1
  13    7    8 1
  14    7    9 2
  15    9   24 1
  16   10   11 1
  17   10   12 1
  18   10   13 1
  19   14   15 1
  20   14   17 1
  21   15   16 1
  22   15   30 1
  23   15   31 1
  24   16   17 1
  25   16   18 1
  26   16   32 1
  27   17   33 1
  28   17   34 1
  29   18   19 ar
  30   18   23 ar
  31   19   20 ar
  32   19   35 1
  33   20   21 ar
  34   20   36 1
  35   21   22 ar
  36   21   37 1
  37   22   23 ar
  38   22   38 1
  39   23   39 1
  40   24   25 1
  41   24   40 1
  42   24   41 1
  43   25   26 1
  44   25   27 1
  45   25   42 1
  46   26   27 1
  47   26   43 1
  48   26   44 1
  49   27   45 1
  50   27   46 1

#	End of record

