#	Name: ASD01200002
#	Creating user name:	WinNT
#	Creation time:	15. 06. 2019 19:08

#	Modifying user name:	WinNT
#	Modification time:	15. 06. 2019 19:08

#	Program:	/corina/corina34_cracker 3.40 0067  02.08.2006

@<TRIPOS>MOLECULE
ASD01200002
  40   42    0    0    0
SMALL
NO_CHARGES


@<TRIPOS>ATOM
   1 C1            -0.0184     1.5028     0.0103 C.ar    
   2 C2             0.0021    -0.0041     0.0020 C.3     
   3 C3            -0.7132    -0.5094    -1.2244 C.2     
   4 N4            -0.2689    -0.1710    -2.4510 N.am    
   5 C5            -0.9286    -0.6371    -3.5822 C.2     
   6 O6            -1.6886    -1.2206    -1.1076 O.2     
   7 S7            -0.4759    -0.2879    -5.1935 S.3     
   8 C8            -1.8191    -1.2579    -5.7922 C.2     
   9 C9            -2.4763    -1.7490    -4.7398 C.2     
  10 N10           -1.9733    -1.4044    -3.5691 N.2     
  11 C11            1.1629     2.2286     0.0029 C.ar    
  12 C12            1.1049     3.6094     0.0104 C.ar    
  13 N13           -0.0554     4.2358     0.0248 N.ar    
  14 C14           -1.1984     3.5781     0.0322 C.ar    
  15 C15           -1.2189     2.1962     0.0197 C.ar    
  16 C16           -0.7002    -0.5305     1.2552 C.3     
  17 C17            0.0962    -0.1218     2.4959 C.3     
  18 C18           -0.6621    -0.5359     3.7692 C.3     
  19 C19            0.2543    -1.5176     4.5283 C.3     
  20 C20            1.6785    -1.1733     4.0262 C.3     
  21 C21            1.4470    -0.8663     2.5258 C.3     
  22 H22            1.0345    -0.3534    -0.0097 H       
  23 H23            0.5113     0.3978    -2.5444 H       
  24 H24           -2.0674    -1.4257    -6.8298 H       
  25 H25           -3.3467    -2.3807    -4.8380 H       
  26 H26            2.1163     1.7214    -0.0082 H       
  27 H27            2.0206     4.1822     0.0047 H       
  28 H28           -2.1292     4.1257     0.0444 H       
  29 H29           -2.1582     1.6633     0.0255 H       
  30 H30           -1.7041    -0.1098     1.3130 H       
  31 H31           -0.7641    -1.6176     1.2063 H       
  32 H32            0.2628     0.9554     2.4942 H       
  33 H33           -0.8629     0.3403     4.3858 H       
  34 H34           -1.5976    -1.0280     3.5032 H       
  35 H35            0.1793    -1.3555     5.6036 H       
  36 H36            0.0002    -2.5476     4.2782 H       
  37 H37            2.0693    -0.2973     4.5439 H       
  38 H38            2.3473    -2.0254     4.1474 H       
  39 H39            1.3856    -1.7911     1.9522 H       
  40 H40            2.2425    -0.2290     2.1396 H       
@<TRIPOS>BOND
   1    1    2 1
   2    1   11 ar
   3    1   15 ar
   4    2    3 1
   5    2   16 1
   6    2   22 1
   7    3    4 am
   8    3    6 2
   9    4    5 1
  10    4   23 1
  11    5    7 1
  12    5   10 2
  13    7    8 1
  14    8    9 2
  15    8   24 1
  16    9   10 1
  17    9   25 1
  18   11   12 ar
  19   11   26 1
  20   12   13 ar
  21   12   27 1
  22   13   14 ar
  23   14   15 ar
  24   14   28 1
  25   15   29 1
  26   16   17 1
  27   16   30 1
  28   16   31 1
  29   17   18 1
  30   17   21 1
  31   17   32 1
  32   18   19 1
  33   18   33 1
  34   18   34 1
  35   19   20 1
  36   19   35 1
  37   19   36 1
  38   20   21 1
  39   20   37 1
  40   20   38 1
  41   21   39 1
  42   21   40 1

#	End of record

