#	Name: ASD04590500
#	Creating user name:	WinNT
#	Creation time:	15. 06. 2019 20:50

#	Modifying user name:	WinNT
#	Modification time:	15. 06. 2019 20:50

#	Program:	/corina/corina34_cracker 3.40 0067  02.08.2006

@<TRIPOS>MOLECULE
ASD04590500
  64   69    0    0    0
SMALL
NO_CHARGES


@<TRIPOS>ATOM
   1 C1             0.8229     2.3378    -1.5548 C.ar    
   2 C2             0.6766     1.0012    -1.2130 C.ar    
   3 C3             3.0517     0.6940    -1.3723 C.ar    
   4 C4             3.1940     2.0496    -1.7183 C.ar    
   5 C5             2.0733     2.8625    -1.8067 C.ar    
   6 N6             4.2936     0.1505    -1.3622 N.2     
   7 C7             5.1780     1.0669    -1.6742 C.2     
   8 N8             4.5473     2.2601    -1.9039 N.pl3   
   9 C9             6.6359     0.8450    -1.7648 C.2     
  10 C10            7.3066    -0.3781    -1.5328 C.2     
  11 C11            8.6324    -0.1638    -1.7167 C.2     
  12 N12            8.8006     1.1424    -2.0523 N.pl3   
  13 N13            7.5397     1.7513    -2.0818 N.2     
  14 N14            6.7068    -1.5964    -1.1754 N.am    
  15 C15            7.4682    -2.6918    -0.9836 C.2     
  16 O16            8.6750    -2.6251    -1.1201 O.2     
  17 C17            1.7764     0.1789    -1.1202 C.ar    
  18 C18            6.8384    -3.9708    -0.6084 C.ar    
  19 C19            5.4467    -4.0834    -0.5664 C.ar    
  20 C20           -0.6974     0.4453    -0.9407 C.3     
  21 N21           -1.2766    -0.0632    -2.1913 N.3     
  22 C22           -2.5078    -0.8232    -1.9309 C.3     
  23 C23           -0.3037    -0.8837    -2.9271 C.3     
  24 C24           -0.9267    -1.3424    -4.2482 C.3     
  25 O25           -2.1383    -2.0521    -3.9771 O.3     
  26 C26           -3.1087    -1.2824    -3.2620 C.3     
  27 C27            4.8642    -5.2817    -0.2148 C.ar    
  28 C28            5.6518    -6.3779     0.0983 C.ar    
  29 C29            7.0280    -6.2829     0.0620 C.ar    
  30 C30            7.6337    -5.0852    -0.2966 C.ar    
  31 N31            9.0192    -4.9870    -0.3344 N.pl3   
  32 C32            9.7057    -4.3810     0.7209 C.ar    
  33 C33           11.0819    -4.2059     0.6469 C.ar    
  34 C34            9.0129    -3.9470     1.8442 C.ar    
  35 C35            9.6945    -3.3480     2.8852 C.ar    
  36 C36           11.0652    -3.1800     2.8105 C.ar    
  37 C37           11.7572    -3.6061     1.6916 C.ar    
  38 H38           -0.0490     2.9709    -1.6284 H       
  39 H39            2.1798     3.9038    -2.0726 H       
  40 H40            4.9710     3.0970    -2.1508 H       
  41 H41            9.4159    -0.9000    -1.6142 H       
  42 H42            9.6469     1.5766    -2.2424 H       
  43 H43            5.7444    -1.6496    -1.0665 H       
  44 H44            1.6548    -0.8605    -0.8533 H       
  45 H45            4.8279    -3.2320    -0.8088 H       
  46 H46           -0.6240    -0.3670    -0.2176 H       
  47 H47           -1.3349     1.2328    -0.5389 H       
  48 H48           -2.2755    -1.6933    -1.3170 H       
  49 H49           -3.2235    -0.1887    -1.4082 H       
  50 H50            0.5896    -0.2935    -3.1315 H       
  51 H51           -0.0361    -1.7549    -2.3291 H       
  52 H52           -1.1450    -0.4733    -4.8688 H       
  53 H53           -0.2301    -1.9979    -4.7709 H       
  54 H54           -3.9903    -1.8945    -3.0715 H       
  55 H55           -3.3905    -0.4116    -3.8539 H       
  56 H56            3.7880    -5.3668    -0.1829 H       
  57 H57            5.1856    -7.3126     0.3730 H       
  58 H58            7.6348    -7.1418     0.3078 H       
  59 H59            9.5098    -5.3391    -1.0935 H       
  60 H60           11.6230    -4.5387    -0.2265 H       
  61 H61            7.9425    -4.0776     1.9030 H       
  62 H62            9.1565    -3.0101     3.7586 H       
  63 H63           11.5958    -2.7113     3.6260 H       
  64 H64           12.8276    -3.4733     1.6364 H       
@<TRIPOS>BOND
   1    1    2 ar
   2    1    5 ar
   3    1   38 1
   4    2   17 ar
   5    2   20 1
   6    3    4 ar
   7    3    6 1
   8    3   17 ar
   9    4    5 ar
  10    4    8 1
  11    5   39 1
  12    6    7 2
  13    7    8 1
  14    7    9 1
  15    8   40 1
  16    9   10 1
  17    9   13 2
  18   10   11 2
  19   10   14 1
  20   11   12 1
  21   11   41 1
  22   12   13 1
  23   12   42 1
  24   14   15 am
  25   14   43 1
  26   15   16 2
  27   15   18 1
  28   17   44 1
  29   18   19 ar
  30   18   30 ar
  31   19   27 ar
  32   19   45 1
  33   20   21 1
  34   20   46 1
  35   20   47 1
  36   21   22 1
  37   21   23 1
  38   22   26 1
  39   22   48 1
  40   22   49 1
  41   23   24 1
  42   23   50 1
  43   23   51 1
  44   24   25 1
  45   24   52 1
  46   24   53 1
  47   25   26 1
  48   26   54 1
  49   26   55 1
  50   27   28 ar
  51   27   56 1
  52   28   29 ar
  53   28   57 1
  54   29   30 ar
  55   29   58 1
  56   30   31 1
  57   31   32 1
  58   31   59 1
  59   32   33 ar
  60   32   34 ar
  61   33   37 ar
  62   33   60 1
  63   34   35 ar
  64   34   61 1
  65   35   36 ar
  66   35   62 1
  67   36   37 ar
  68   36   63 1
  69   37   64 1

#	End of record

