#	Name: ASD03080102
#	Creating user name:	WinNT
#	Creation time:	15. 06. 2019 20:26

#	Modifying user name:	WinNT
#	Modification time:	15. 06. 2019 20:26

#	Program:	/corina/corina34_cracker 3.40 0067  02.08.2006

@<TRIPOS>MOLECULE
ASD03080102
  29   31    0    0    0
SMALL
NO_CHARGES


@<TRIPOS>ATOM
   1 N1             0.0175    -1.1399    -0.0042 N.1     
   2 C2             0.0021    -0.0041     0.0020 C.1     
   3 C3            -0.0173     1.4278     0.0099 C.ar    
   4 C4             1.1815     2.1445     0.0023 C.ar    
   5 C5             1.1628     3.5248     0.0099 C.ar    
   6 C6            -0.0392     4.2050     0.0251 C.ar    
   7 C7            -1.2432     3.5011     0.0328 C.ar    
   8 C8            -1.2333     2.1105     0.0194 C.ar    
   9 C9            -2.5329     4.2349     0.0491 C.2     
  10 C10           -2.6911     5.6319    -0.0412 C.2     
  11 C11           -4.0132     5.9042     0.0094 C.2     
  12 N12           -4.6772     4.7248     0.1278 N.pl3   
  13 N13           -3.7292     3.6937     0.1448 N.2     
  14 C14           -6.0670     4.5672     0.2131 C.ar    
  15 C15           -6.6281     3.2984     0.3323 C.ar    
  16 C16           -8.0072     3.1937     0.4138 C.ar    
  17 C17           -8.7750     4.3424     0.3744 C.ar    
  18 N18           -8.2124     5.5299     0.2609 N.ar    
  19 C19           -6.9047     5.6744     0.1858 C.ar    
  20 H20            2.1244     1.6180    -0.0092 H       
  21 H21            2.0920     4.0752     0.0044 H       
  22 H22           -0.0468     5.2849     0.0314 H       
  23 H23           -2.1634     1.5616     0.0249 H       
  24 H24           -1.8960     6.3568    -0.1344 H       
  25 H25           -4.4626     6.8852    -0.0356 H       
  26 H26           -6.0036     2.4177     0.3602 H       
  27 H27           -8.4769     2.2256     0.5066 H       
  28 H28           -9.8505     4.2665     0.4372 H       
  29 H29           -6.4806     6.6634     0.0934 H       
@<TRIPOS>BOND
   1    1    2 3
   2    2    3 1
   3    3    4 ar
   4    3    8 ar
   5    4    5 ar
   6    4   20 1
   7    5    6 ar
   8    5   21 1
   9    6    7 ar
  10    6   22 1
  11    7    8 ar
  12    7    9 1
  13    8   23 1
  14    9   10 1
  15    9   13 2
  16   10   11 2
  17   10   24 1
  18   11   12 1
  19   11   25 1
  20   12   13 1
  21   12   14 1
  22   14   15 ar
  23   14   19 ar
  24   15   16 ar
  25   15   26 1
  26   16   17 ar
  27   16   27 1
  28   17   18 ar
  29   17   28 1
  30   18   19 ar
  31   19   29 1

#	End of record

