#	Name: ASD01870029
#	Creating user name:	WinNT
#	Creation time:	15. 06. 2019 19:38

#	Modifying user name:	WinNT
#	Modification time:	15. 06. 2019 19:38

#	Program:	/corina/corina34_cracker 3.40 0067  02.08.2006

@<TRIPOS>MOLECULE
ASD01870029
  40   43    0    0    0
SMALL
NO_CHARGES


@<TRIPOS>ATOM
   1 C1            -0.0162     1.3766     0.0386 C.ar    
   2 C2             0.0017    -0.0034    -0.0278 C.ar    
   3 N3             1.1344    -0.6677    -0.0834 N.ar    
   4 C4             2.3252    -0.0563    -0.0795 C.ar    
   5 C5             2.3957     1.3311    -0.0150 C.ar    
   6 C6             1.1858     2.0707     0.0462 C.ar    
   7 S7             3.9402    -0.7472    -0.1459 S.3     
   8 C8             4.7114     0.8277    -0.0872 C.2     
   9 C9             3.7720     1.8346    -0.0198 C.2     
  10 C10            6.0880     1.1778    -0.0996 C.2     
  11 N11            6.4263     2.4813    -0.0452 N.am    
  12 C12            5.4574     3.4325     0.0202 C.2     
  13 N13            4.1966     3.1268     0.0323 N.2     
  14 N14            1.2042     3.4567     0.1113 N.3     
  15 C15            7.7758     2.8557    -0.0555 C.ar    
  16 O16            6.9480     0.3146    -0.1581 O.2     
  17 C17            0.5000     4.0469    -1.0348 C.3     
  18 C18            0.6359     3.9317     1.3799 C.3     
  19 C19            8.3008     3.5361    -1.1462 C.ar    
  20 C20            9.6319     3.9043    -1.1531 C.ar    
  21 C21           10.4418     3.5957    -0.0756 C.ar    
  22 C22            9.9221     2.9178     1.0119 C.ar    
  23 C23            8.5903     2.5523     1.0275 C.ar    
  24 C24           11.8939     3.9985    -0.0867 C.3     
  25 H25           -0.9548     1.9093     0.0797 H       
  26 H26           -0.9321    -0.5460    -0.0339 H       
  27 H27            5.7455     4.4725     0.0636 H       
  28 H28           -0.5369     3.7108    -1.0364 H       
  29 H29            0.5295     5.1339    -0.9588 H       
  30 H30            0.9847     3.7340    -1.9595 H       
  31 H31            1.2196     3.5350     2.2106 H       
  32 H32            0.6626     5.0211     1.4047 H       
  33 H33           -0.3960     3.5914     1.4658 H       
  34 H34            7.6690     3.7768    -1.9884 H       
  35 H35           10.0408     4.4335    -2.0012 H       
  36 H36           10.5573     2.6779     1.8518 H       
  37 H37            8.1849     2.0232     1.8773 H       
  38 H38           11.9990     4.9911     0.3513 H       
  39 H39           12.4743     3.2818     0.4943 H       
  40 H40           12.2588     4.0141    -1.1136 H       
@<TRIPOS>BOND
   1    1    2 ar
   2    1    6 ar
   3    1   25 1
   4    2    3 ar
   5    2   26 1
   6    3    4 ar
   7    4    5 ar
   8    4    7 1
   9    5    6 ar
  10    5    9 1
  11    6   14 1
  12    7    8 1
  13    8    9 2
  14    8   10 1
  15    9   13 1
  16   10   11 am
  17   10   16 2
  18   11   12 1
  19   11   15 1
  20   12   13 2
  21   12   27 1
  22   14   17 1
  23   14   18 1
  24   15   19 ar
  25   15   23 ar
  26   17   28 1
  27   17   29 1
  28   17   30 1
  29   18   31 1
  30   18   32 1
  31   18   33 1
  32   19   20 ar
  33   19   34 1
  34   20   21 ar
  35   20   35 1
  36   21   22 ar
  37   21   24 1
  38   22   23 ar
  39   22   36 1
  40   23   37 1
  41   24   38 1
  42   24   39 1
  43   24   40 1

#	End of record

