#	Name: ASD03220005
#	Creating user name:	WinNT
#	Creation time:	15. 06. 2019 20:34

#	Modifying user name:	WinNT
#	Modification time:	15. 06. 2019 20:34

#	Program:	/corina/corina34_cracker 3.40 0067  02.08.2006

@<TRIPOS>MOLECULE
ASD03220005
  51   52    0    0    0
SMALL
NO_CHARGES


@<TRIPOS>ATOM
   1 C1            -0.0187     1.5258     0.0104 C.3     
   2 C2             0.0021    -0.0041     0.0020 C.3     
   3 C3            -1.4333    -0.5336     0.0129 C.3     
   4 C4            -1.4126    -2.0635     0.0045 C.3     
   5 C5            -2.8479    -2.5931     0.0153 C.3     
   6 C6            -2.8272    -4.1229     0.0069 C.3     
   7 C7            -4.2626    -4.6525     0.0178 C.3     
   8 O8            -4.2432    -6.0813     0.0099 O.3     
   9 C9            -5.4455    -6.7147     0.0180 C.ar    
  10 C10           -5.5007    -8.1009     0.0111 C.ar    
  11 C11           -6.7242    -8.7424     0.0193 C.ar    
  12 C12           -7.8931    -8.0041     0.0343 C.ar    
  13 C13           -7.8408    -6.6224     0.0408 C.ar    
  14 C14           -6.6198    -5.9762     0.0389 C.ar    
  15 C15           -9.2264    -8.7064     0.0433 C.3     
  16 O16           -9.6350    -8.9357     1.3933 O.3     
  17 C17          -10.8227    -9.5632     1.5789 C.ar    
  18 C18          -11.5818    -9.9517     0.4876 C.ar    
  19 C19          -12.7934   -10.5918     0.6738 C.ar    
  20 C20          -13.2617   -10.8516     1.9482 C.ar    
  21 C21          -12.5200   -10.4725     3.0553 C.ar    
  22 C22          -11.2854    -9.8270     2.8787 C.ar    
  23 C23          -10.4898    -9.4207     4.0437 C.2     
  24 O24          -10.9019    -9.6442     5.1742 O.co2   
  25 O25           -9.4145    -8.8584     3.8844 O.co2   
  26 O26          -12.9821   -10.7282     4.3043 O.3     
  27 H27            1.0039     1.9031     0.0027 H       
  28 H28           -0.5459     1.8868    -0.8726 H       
  29 H29           -0.5289     1.8773     0.9072 H       
  30 H30            0.5123    -0.3556    -0.8948 H       
  31 H31            0.5293    -0.3651     0.8851 H       
  32 H32           -1.9435    -0.1821     0.9097 H       
  33 H33           -1.9605    -0.1726    -0.8702 H       
  34 H34           -0.9024    -2.4150    -0.8923 H       
  35 H35           -0.8854    -2.4246     0.8875 H       
  36 H36           -3.3581    -2.2415     0.9121 H       
  37 H37           -3.3751    -2.2320    -0.8677 H       
  38 H38           -2.3170    -4.4744    -0.8899 H       
  39 H39           -2.3000    -4.4840     0.8900 H       
  40 H40           -4.7728    -4.3010     0.9146 H       
  41 H41           -4.7898    -4.2914    -0.8653 H       
  42 H42           -4.5879    -8.6781    -0.0011 H       
  43 H43           -6.7676    -9.8215     0.0135 H       
  44 H44           -8.7553    -6.0479     0.0519 H       
  45 H45           -6.5795    -4.8970     0.0440 H       
  46 H46           -9.9674    -8.0856    -0.4602 H       
  47 H47           -9.1380    -9.6604    -0.4766 H       
  48 H48          -11.2263    -9.7537    -0.5128 H       
  49 H49          -13.3786   -10.8907    -0.1832 H       
  50 H50          -14.2095   -11.3518     2.0814 H       
  51 H51          -12.7047   -11.5841     4.6587 H       
@<TRIPOS>BOND
   1    1    2 1
   2    1   27 1
   3    1   28 1
   4    1   29 1
   5    2    3 1
   6    2   30 1
   7    2   31 1
   8    3    4 1
   9    3   32 1
  10    3   33 1
  11    4    5 1
  12    4   34 1
  13    4   35 1
  14    5    6 1
  15    5   36 1
  16    5   37 1
  17    6    7 1
  18    6   38 1
  19    6   39 1
  20    7    8 1
  21    7   40 1
  22    7   41 1
  23    8    9 1
  24    9   10 ar
  25    9   14 ar
  26   10   11 ar
  27   10   42 1
  28   11   12 ar
  29   11   43 1
  30   12   13 ar
  31   12   15 1
  32   13   14 ar
  33   13   44 1
  34   14   45 1
  35   15   16 1
  36   15   46 1
  37   15   47 1
  38   16   17 1
  39   17   18 ar
  40   17   22 ar
  41   18   19 ar
  42   18   48 1
  43   19   20 ar
  44   19   49 1
  45   20   21 ar
  46   20   50 1
  47   21   22 ar
  48   21   26 1
  49   22   23 1
  50   23   24 ar
  51   23   25 ar
  52   26   51 1

#	End of record

