#	Name: ASD00311200
#	Creating user name:	WinNT
#	Creation time:	15. 06. 2019 18:34

#	Modifying user name:	WinNT
#	Modification time:	15. 06. 2019 18:34

#	Program:	/corina/corina34_cracker 3.40 0067  02.08.2006

@<TRIPOS>MOLECULE
ASD00311200
  37   40    0    0    0
SMALL
NO_CHARGES


@<TRIPOS>ATOM
   1 C1            -0.0167     1.3777     0.0096 C.2     
   2 C2             0.0021    -0.0041     0.0020 C.2     
   3 C3             1.2587    -0.6766    -0.0131 C.2     
   4 C4             2.4314     0.0672    -0.0199 C.2     
   5 C5             2.3576     1.4748    -0.0117 C.2     
   6 N6             1.1651     2.0903     0.0022 N.am    
   7 C7            -1.3434    -0.5752     0.0118 C.2     
   8 C8            -2.3230     0.3264     0.0260 C.2     
   9 S9            -1.6792     1.9564     0.0358 S.3     
  10 O10            3.3827     2.1368    -0.0171 O.2     
  11 O11            1.3086    -2.0293    -0.0204 O.3     
  12 C12            3.7477    -0.6124    -0.0352 C.ar    
  13 C13            4.5934    -0.4748    -1.1355 C.ar    
  14 C14            5.8183    -1.1098    -1.1450 C.ar    
  15 C15            6.2086    -1.8831    -0.0637 C.ar    
  16 C16            5.3718    -2.0233     1.0316 C.ar    
  17 C17            4.1476    -1.3873     1.0532 C.ar    
  18 F18            7.4090    -2.5029    -0.0777 F       
  19 C19           -1.5960    -2.0356     0.0059 C.ar    
  20 C20           -1.7274    -2.7207    -1.2069 C.ar    
  21 C21           -1.9634    -4.0847    -1.2043 C.ar    
  22 C22           -2.0688    -4.7680    -0.0042 C.ar    
  23 C23           -1.9390    -4.0919     1.1980 C.ar    
  24 C24           -1.6979    -2.7325     1.2079 C.ar    
  25 O25           -1.6242    -2.0491    -2.3838 O.3     
  26 F26           -2.2995    -6.0992    -0.0059 F       
  27 Cl27          -4.0150    -0.0615     0.0400 Cl      
  28 H28            1.1331     3.0597     0.0077 H       
  29 H29            2.2059    -2.3897    -0.0307 H       
  30 H30            4.2899     0.1275    -1.9790 H       
  31 H31            6.4737    -1.0041    -1.9968 H       
  32 H32            5.6803    -2.6278     1.8717 H       
  33 H33            3.4982    -1.4930     1.9097 H       
  34 H34           -2.0657    -4.6164    -2.1387 H       
  35 H35           -2.0226    -4.6305     2.1303 H       
  36 H36           -1.5927    -2.2091     2.1467 H       
  37 H37           -0.7239    -2.0050    -2.7339 H       
@<TRIPOS>BOND
   1    1    2 2
   2    1    6 1
   3    1    9 1
   4    2    3 1
   5    2    7 1
   6    3    4 2
   7    3   11 1
   8    4    5 1
   9    4   12 1
  10    5    6 am
  11    5   10 2
  12    6   28 1
  13    7    8 2
  14    7   19 1
  15    8    9 1
  16    8   27 1
  17   11   29 1
  18   12   13 ar
  19   12   17 ar
  20   13   14 ar
  21   13   30 1
  22   14   15 ar
  23   14   31 1
  24   15   16 ar
  25   15   18 1
  26   16   17 ar
  27   16   32 1
  28   17   33 1
  29   19   20 ar
  30   19   24 ar
  31   20   21 ar
  32   20   25 1
  33   21   22 ar
  34   21   34 1
  35   22   23 ar
  36   22   26 1
  37   23   24 ar
  38   23   35 1
  39   24   36 1
  40   25   37 1

#	End of record

