#	Name: ASD01010004
#	Creating user name:	WinNT
#	Creation time:	15. 06. 2019 18:56

#	Modifying user name:	WinNT
#	Modification time:	15. 06. 2019 18:56

#	Program:	/corina/corina34_cracker 3.40 0067  02.08.2006

@<TRIPOS>MOLECULE
ASD01010004
  19   19    0    0    0
SMALL
NO_CHARGES


@<TRIPOS>ATOM
   1 C1            -0.0180     1.4730     0.0101 C.2     
   2 C2             0.0021    -0.0041     0.0020 C.ar    
   3 C3             1.2188    -0.6888    -0.0133 C.ar    
   4 C4             1.2302    -2.0682    -0.0208 C.ar    
   5 C5             0.0396    -2.7731    -0.0138 C.ar    
   6 C6            -1.1697    -2.1009     0.0009 C.ar    
   7 C7            -1.1956    -0.7217     0.0154 C.ar    
   8 O8             1.0256     2.0946     0.0035 O.2     
   9 O9            -1.1936     2.1307     0.0193 O.3     
  10 N10           -2.4383    -2.8634     0.0074 N.pl3   
  11 O11           -2.4170    -4.0812    -0.0002 O.2     
  12 O12           -3.5036    -2.2730     0.0204 O.2     
  13 N13            2.5191    -2.7959    -0.0371 N.pl3   
  14 O14            3.5680    -2.1767    -0.0437 O.2     
  15 O15            2.5308    -4.0138    -0.0437 O.2     
  16 H16            2.1488    -0.1398    -0.0195 H       
  17 H17            0.0543    -3.8530    -0.0201 H       
  18 H18           -2.1401    -0.1983     0.0321 H       
  19 H19           -1.1561     3.0969     0.0244 H       
@<TRIPOS>BOND
   1    1    2 1
   2    1    8 2
   3    1    9 1
   4    2    3 ar
   5    2    7 ar
   6    3    4 ar
   7    3   16 1
   8    4    5 ar
   9    4   13 1
  10    5    6 ar
  11    5   17 1
  12    6    7 ar
  13    6   10 1
  14    7   18 1
  15    9   19 1
  16   10   11 2
  17   10   12 2
  18   13   14 2
  19   13   15 2

#	End of record

