#	Name: ASD02770036
#	Creating user name:	WinNT
#	Creation time:	15. 06. 2019 20:26

#	Modifying user name:	WinNT
#	Modification time:	15. 06. 2019 20:26

#	Program:	/corina/corina34_cracker 3.40 0067  02.08.2006

@<TRIPOS>MOLECULE
ASD02770036
  28   28    0    0    0
SMALL
NO_CHARGES


@<TRIPOS>ATOM
   1 C1            -0.2626     1.4279    -0.2952 C.2     
   2 C2            -0.1703    -0.0744    -0.2205 C.3     
   3 O3             0.7485     2.0973    -0.3177 O.2     
   4 N4            -1.4688     2.0274    -0.3428 N.am    
   5 S5             1.5698    -0.5705    -0.1781 S.3     
   6 C6             1.3869    -2.3210    -0.0939 C.ar    
   7 C7             2.5332    -3.1401    -0.0418 C.ar    
   8 C8             2.3718    -4.5226     0.0249 C.ar    
   9 C9             1.0672    -5.0383     0.0372 C.ar    
  10 C10           -0.0175    -4.1532    -0.0175 C.ar    
  11 N11            0.1720    -2.8536    -0.0748 N.ar    
  12 C12           -1.4222    -4.6988    -0.0053 C.3     
  13 C13            3.8426    -2.5605    -0.0577 C.1     
  14 N14            4.8813    -2.1008    -0.0703 N.1     
  15 C15            0.8415    -6.4871     0.1061 C.2     
  16 O16           -0.2853    -6.9204     0.2255 O.2     
  17 C17            2.0095    -7.4362     0.0285 C.3     
  18 H18           -0.6701    -0.4246     0.6827 H       
  19 H19           -0.6517    -0.5120    -1.0950 H       
  20 H20           -2.2774     1.4919    -0.3289 H       
  21 H21           -1.5282     2.9944    -0.3909 H       
  22 H22            3.2282    -5.1794     0.0657 H       
  23 H23           -1.7271    -4.8943     1.0228 H       
  24 H24           -2.0987    -3.9707    -0.4527 H       
  25 H25           -1.4568    -5.6262    -0.5771 H       
  26 H26            2.3864    -7.6313     1.0325 H       
  27 H27            1.6871    -8.3726    -0.4268 H       
  28 H28            2.7997    -6.9913    -0.5762 H       
@<TRIPOS>BOND
   1    1    2 1
   2    1    3 2
   3    1    4 am
   4    2    5 1
   5    2   18 1
   6    2   19 1
   7    4   20 1
   8    4   21 1
   9    5    6 1
  10    6    7 ar
  11    6   11 ar
  12    7    8 ar
  13    7   13 1
  14    8    9 ar
  15    8   22 1
  16    9   10 ar
  17    9   15 1
  18   10   11 ar
  19   10   12 1
  20   12   23 1
  21   12   24 1
  22   12   25 1
  23   13   14 3
  24   15   16 2
  25   15   17 1
  26   17   26 1
  27   17   27 1
  28   17   28 1

#	End of record

