#	Name: ASD08150318
#	Creating user name:	WinNT
#	Creation time:	15. 06. 2019 21:15

#	Modifying user name:	WinNT
#	Modification time:	15. 06. 2019 21:15

#	Program:	/corina/corina34_cracker 3.40 0067  02.08.2006

@<TRIPOS>MOLECULE
ASD08150318
  65   71    0    0    0
SMALL
NO_CHARGES


@<TRIPOS>ATOM
   1 N1             0.7215     2.4580     2.7521 N.am    
   2 C2             1.0936     1.6613     3.7727 C.2     
   3 C3             2.3166     0.9615     3.7357 C.2     
   4 C4             3.1409     1.0826     2.6640 C.2     
   5 C5             2.7525     1.9199     1.5885 C.ar    
   6 C6             3.5697     2.0804     0.4533 C.ar    
   7 N7             3.2087     2.8532    -0.5377 N.ar    
   8 C8             2.0517     3.5322    -0.5336 C.ar    
   9 C9             1.1667     3.4305     0.5681 C.ar    
  10 C10            1.5279     2.6023     1.6569 C.ar    
  11 C11           -0.0361     4.1427     0.5633 C.ar    
  12 C12           -0.3508     4.9440    -0.5240 C.ar    
  13 C13            0.5307     5.0390    -1.6112 C.ar    
  14 C14            1.7039     4.3519    -1.6202 C.ar    
  15 O15            0.3628     1.5444     4.7417 O.2     
  16 C16           -1.6228     5.7021    -0.5376 C.ar    
  17 C17           -0.5019     3.1385     2.8103 C.ar    
  18 C18           -0.5577     4.4231     3.3360 C.ar    
  19 C19           -1.7626     5.0934     3.3935 C.ar    
  20 C20           -2.9199     4.4836     2.9251 C.ar    
  21 C21           -2.8638     3.1993     2.3990 C.ar    
  22 C22           -1.6575     2.5308     2.3373 C.ar    
  23 N23           -4.1406     5.1623     2.9836 N.3     
  24 C24           -2.6998     5.2677    -1.2916 C.ar    
  25 C25           -4.1449     6.3177     2.0755 C.3     
  26 C26           -5.5219     6.9850     2.1096 C.3     
  27 N27           -5.8286     7.3993     3.4858 N.3     
  28 C28           -5.8243     6.2440     4.3939 C.3     
  29 C29           -4.4473     5.5767     4.3598 C.3     
  30 N30           -3.8429     5.9350    -1.3136 N.ar    
  31 C31           -4.0373     7.0406    -0.6330 C.ar    
  32 C32           -3.0110     7.5712     0.1660 C.ar    
  33 C33           -1.7702     6.8872     0.2252 C.ar    
  34 C34           -3.1813     8.7510     0.9079 C.ar    
  35 C35           -2.1523     9.2212     1.6663 C.ar    
  36 C36           -0.9324     8.5505     1.7176 C.ar    
  37 C37           -0.7350     7.3986     1.0154 C.ar    
  38 C38           -4.1189     2.5374     1.8914 C.3     
  39 F39           -3.8331     1.2197     1.5185 F       
  40 F40           -5.0869     2.5367     2.9014 F       
  41 F41           -4.6019     3.2414     0.7831 F       
  42 H42            2.5990     0.3271     4.5629 H       
  43 H43            4.0792     0.5489     2.6315 H       
  44 H44            4.5123     1.5559     0.4002 H       
  45 H45           -0.7153     4.0693     1.3998 H       
  46 H46            0.2738     5.6658    -2.4523 H       
  47 H47            2.3709     4.4369    -2.4654 H       
  48 H48            0.3418     4.8971     3.7001 H       
  49 H49           -1.8061     6.0919     3.8028 H       
  50 H50           -1.6132     1.5337     1.9248 H       
  51 H51           -2.6050     4.3640    -1.8754 H       
  52 H52           -3.3862     7.0329     2.3933 H       
  53 H53           -3.9277     5.9836     1.0609 H       
  54 H54           -5.5185     7.8593     1.4587 H       
  55 H55           -6.2771     6.2782     1.7657 H       
  56 H56           -5.1853     8.1097     3.8014 H       
  57 H57           -6.0415     6.5781     5.4085 H       
  58 H58           -6.5830     5.5288     4.0760 H       
  59 H59           -4.4507     4.7024     5.0106 H       
  60 H60           -3.6921     6.2835     4.7036 H       
  61 H61           -4.9908     7.5449    -0.6879 H       
  62 H62           -4.1213     9.2819     0.8772 H       
  63 H63           -2.2841    10.1288     2.2367 H       
  64 H64           -0.1329     8.9460     2.3266 H       
  65 H65            0.2156     6.8881     1.0636 H       
@<TRIPOS>BOND
   1    1    2 am
   2    1   10 1
   3    1   17 1
   4    2    3 1
   5    2   15 2
   6    3    4 2
   7    3   42 1
   8    4    5 1
   9    4   43 1
  10    5    6 ar
  11    5   10 ar
  12    6    7 ar
  13    6   44 1
  14    7    8 ar
  15    8    9 ar
  16    8   14 ar
  17    9   10 ar
  18    9   11 ar
  19   11   12 ar
  20   11   45 1
  21   12   13 ar
  22   12   16 1
  23   13   14 ar
  24   13   46 1
  25   14   47 1
  26   16   24 ar
  27   16   33 ar
  28   17   18 ar
  29   17   22 ar
  30   18   19 ar
  31   18   48 1
  32   19   20 ar
  33   19   49 1
  34   20   21 ar
  35   20   23 1
  36   21   22 ar
  37   21   38 1
  38   22   50 1
  39   23   25 1
  40   23   29 1
  41   24   30 ar
  42   24   51 1
  43   25   26 1
  44   25   52 1
  45   25   53 1
  46   26   27 1
  47   26   54 1
  48   26   55 1
  49   27   28 1
  50   27   56 1
  51   28   29 1
  52   28   57 1
  53   28   58 1
  54   29   59 1
  55   29   60 1
  56   30   31 ar
  57   31   32 ar
  58   31   61 1
  59   32   33 ar
  60   32   34 ar
  61   33   37 ar
  62   34   35 ar
  63   34   62 1
  64   35   36 ar
  65   35   63 1
  66   36   37 ar
  67   36   64 1
  68   37   65 1
  69   38   39 1
  70   38   40 1
  71   38   41 1

#	End of record

