#	Name: ASD01810385
#	Creating user name:	WinNT
#	Creation time:	15. 06. 2019 19:24

#	Modifying user name:	WinNT
#	Modification time:	15. 06. 2019 19:24

#	Program:	/corina/corina34_cracker 3.40 0067  02.08.2006

@<TRIPOS>MOLECULE
ASD01810385
  50   53    0    0    0
SMALL
NO_CHARGES


@<TRIPOS>ATOM
   1 C1             6.7342     1.6956    -0.9328 C.ar    
   2 C2             6.8406     0.3120    -0.9491 C.ar    
   3 C3             5.7539    -0.4814    -0.6465 C.ar    
   4 C4             4.5320     0.1071    -0.3198 C.ar    
   5 C5             4.4290     1.5077    -0.3045 C.ar    
   6 C6             5.5375     2.2970    -0.6130 C.ar    
   7 N7             3.4375    -0.6741    -0.0157 N.pl3   
   8 C8             2.2439    -0.1583     0.3031 C.2     
   9 C9             2.0204     1.2032     0.3514 C.2     
  10 C10            3.1316     2.1174     0.0425 C.2     
  11 O11            2.9858     3.3268     0.0715 O.2     
  12 C12            0.6949     1.7307     0.7048 C.2     
  13 C13            3.5868    -2.1313    -0.0430 C.3     
  14 C14            3.4415    -2.6319    -1.4814 C.3     
  15 C15            3.6709    -4.1453    -1.5221 C.3     
  16 C16            3.4644    -4.6494    -2.9522 C.3     
  17 N17            2.1002    -4.3310    -3.3926 N.3     
  18 C18            1.8718    -2.8805    -3.4071 C.3     
  19 C19            2.0307    -2.3236    -1.9905 C.3     
  20 C20            1.8353    -4.8901    -4.6394 C.ar    
  21 O21           -0.2159     0.9663     0.9576 O.2     
  22 O22            0.4891     3.0623     0.7485 O.3     
  23 C23            2.8133    -5.6399    -5.2861 C.ar    
  24 F24            5.8724    -1.8270    -0.6668 F       
  25 C25            0.5909    -4.7028    -5.2341 C.ar    
  26 C26            0.3253    -5.2551    -6.4667 C.ar    
  27 C27            1.3073    -6.0044    -7.1214 C.ar    
  28 C28            2.5545    -6.1946    -6.5190 C.ar    
  29 C29            1.0345    -6.5804    -8.4038 C.1     
  30 N30            0.8180    -7.0374    -9.4210 N.1     
  31 H31            7.5953     2.3037    -1.1677 H       
  32 H32            7.7843    -0.1483    -1.2017 H       
  33 H33            5.4572     3.3739    -0.6010 H       
  34 H34            1.4288    -0.8295     0.5297 H       
  35 H35            4.5711    -2.4028     0.3386 H       
  36 H36            2.8172    -2.5871     0.5799 H       
  37 H37            4.1755    -2.1351    -2.1159 H       
  38 H38            4.6885    -4.3679    -1.2011 H       
  39 H39            2.9626    -4.6387    -0.8565 H       
  40 H40            4.1821    -4.1658    -3.6149 H       
  41 H41            3.6129    -5.7288    -2.9819 H       
  42 H42            2.5970    -2.4052    -4.0676 H       
  43 H43            0.8637    -2.6751    -3.7670 H       
  44 H44            1.2967    -2.7883    -1.3323 H       
  45 H45            1.8766    -1.2446    -2.0042 H       
  46 H46           -0.3992     3.3617     0.9858 H       
  47 H47            3.7766    -5.7864    -4.8202 H       
  48 H48           -0.1672    -4.1238    -4.7277 H       
  49 H49           -0.6407    -5.1100    -6.9272 H       
  50 H50            3.3155    -6.7727    -7.0222 H       
@<TRIPOS>BOND
   1    1    2 ar
   2    1    6 ar
   3    1   31 1
   4    2    3 ar
   5    2   32 1
   6    3    4 ar
   7    3   24 1
   8    4    5 ar
   9    4    7 1
  10    5    6 ar
  11    5   10 1
  12    6   33 1
  13    7    8 1
  14    7   13 1
  15    8    9 2
  16    8   34 1
  17    9   10 1
  18    9   12 1
  19   10   11 2
  20   12   21 2
  21   12   22 1
  22   13   14 1
  23   13   35 1
  24   13   36 1
  25   14   15 1
  26   14   19 1
  27   14   37 1
  28   15   16 1
  29   15   38 1
  30   15   39 1
  31   16   17 1
  32   16   40 1
  33   16   41 1
  34   17   18 1
  35   17   20 1
  36   18   19 1
  37   18   42 1
  38   18   43 1
  39   19   44 1
  40   19   45 1
  41   20   25 ar
  42   20   23 ar
  43   22   46 1
  44   23   28 ar
  45   23   47 1
  46   25   26 ar
  47   25   48 1
  48   26   27 ar
  49   26   49 1
  50   27   29 1
  51   27   28 ar
  52   28   50 1
  53   29   30 3

#	End of record

