#	Name: ASD04590020
#	Creating user name:	WinNT
#	Creation time:	15. 06. 2019 20:50

#	Modifying user name:	WinNT
#	Modification time:	15. 06. 2019 20:50

#	Program:	/corina/corina34_cracker 3.40 0067  02.08.2006

@<TRIPOS>MOLECULE
ASD04590020
  64   67    0    0    0
SMALL
NO_CHARGES


@<TRIPOS>ATOM
   1 C1            -0.0187     1.5281     0.0104 C.3     
   2 C2             0.0021    -0.0041     0.0020 C.3     
   3 C3             0.8173    -0.4848     1.2046 C.3     
   4 C4             2.2127     0.0837     1.1303 C.2     
   5 C5             2.4460     1.2813     0.5528 C.2     
   6 C6             1.3971     2.0366    -0.0003 C.2     
   7 N7             3.2429    -0.6417     1.6662 N.pl3   
   8 C8             4.4248    -0.0370     1.9918 C.2     
   9 C9             4.7527     1.1507     1.4545 C.2     
  10 C10            3.8439     1.8424     0.4809 C.3     
  11 O11            1.6385     3.1193    -0.4963 O.2     
  12 C12            4.3806     1.6564    -0.9150 C.ar    
  13 C13            4.7255     2.7580    -1.6754 C.ar    
  14 C14            5.2178     2.5873    -2.9558 C.ar    
  15 C15            5.3656     1.3150    -3.4756 C.ar    
  16 C16            5.0216     0.2133    -2.7148 C.ar    
  17 C17            4.5334     0.3838    -1.4328 C.ar    
  18 C18            5.3661    -0.7060     2.9600 C.3     
  19 C19            5.9773     1.7604     1.8140 C.2     
  20 O20            6.3192     2.9526     1.2823 O.3     
  21 O21            6.7226     1.2098     2.6028 O.2     
  22 C22            7.5703     3.5100     1.6901 C.3     
  23 C23            7.7835     4.8526     0.9879 C.3     
  24 C24           -1.4066    -0.5302     0.1022 C.ar    
  25 C25           -2.1843    -0.2142     1.2006 C.ar    
  26 C26           -1.9201    -1.3230    -0.9072 C.ar    
  27 C27           -3.2151    -1.8075    -0.8166 C.ar    
  28 C28           -3.9960    -1.4942     0.2917 C.ar    
  29 C29           -3.4771    -0.6944     1.2972 C.ar    
  30 O30           -5.2675    -1.9674     0.3851 O.3     
  31 C31           -6.0104    -1.6053     1.5509 C.3     
  32 O32           -3.7219    -2.5872    -1.8090 O.3     
  33 C33           -2.8634    -2.8673    -2.9165 C.3     
  34 N34            5.8918     1.1322    -4.8470 N.pl3   
  35 O35            6.1945     2.1030    -5.5175 O.2     
  36 O36            6.0221     0.0112    -5.3049 O.2     
  37 H37           -0.5433     1.8907    -0.8735 H       
  38 H38           -0.5263     1.8811     0.9081 H       
  39 H39            0.4641    -0.3590    -0.9192 H       
  40 H40            0.3379    -0.1509     2.1248 H       
  41 H41            0.8681    -1.5736     1.1967 H       
  42 H42            3.1329    -1.5937     1.8164 H       
  43 H43            3.8146     2.9070     0.7131 H       
  44 H44            4.6100     3.7521    -1.2694 H       
  45 H45            5.4865     3.4480    -3.5502 H       
  46 H46            5.1367    -0.7808    -3.1210 H       
  47 H47            4.2646    -0.4769    -0.8384 H       
  48 H48            4.9367    -1.6523     3.2892 H       
  49 H49            6.3211    -0.8919     2.4686 H       
  50 H50            5.5214    -0.0579     3.8225 H       
  51 H51            7.5661     3.6612     2.7695 H       
  52 H52            8.3768     2.8276     1.4218 H       
  53 H53            6.9770     5.5350     1.2562 H       
  54 H54            8.7377     5.2778     1.2990 H       
  55 H55            7.7876     4.7015    -0.0915 H       
  56 H56           -1.7809     0.4088     1.9852 H       
  57 H57           -1.3120    -1.5644    -1.7665 H       
  58 H58           -4.0810    -0.4500     2.1586 H       
  59 H59           -6.0971    -0.5200     1.6040 H       
  60 H60           -7.0055    -2.0472     1.4994 H       
  61 H61           -5.4954    -1.9725     2.4386 H       
  62 H62           -3.3895    -3.4971    -3.6338 H       
  63 H63           -2.5738    -1.9329    -3.3972 H       
  64 H64           -1.9720    -3.3856    -2.5631 H       
@<TRIPOS>BOND
   1    1    2 1
   2    1    6 1
   3    1   37 1
   4    1   38 1
   5    2    3 1
   6    2   24 1
   7    2   39 1
   8    3    4 1
   9    3   40 1
  10    3   41 1
  11    4    5 2
  12    4    7 1
  13    5    6 1
  14    5   10 1
  15    6   11 2
  16    7    8 1
  17    7   42 1
  18    8    9 2
  19    8   18 1
  20    9   10 1
  21    9   19 1
  22   10   12 1
  23   10   43 1
  24   12   13 ar
  25   12   17 ar
  26   13   14 ar
  27   13   44 1
  28   14   15 ar
  29   14   45 1
  30   15   16 ar
  31   15   34 1
  32   16   17 ar
  33   16   46 1
  34   17   47 1
  35   18   48 1
  36   18   49 1
  37   18   50 1
  38   19   20 1
  39   19   21 2
  40   20   22 1
  41   22   23 1
  42   22   51 1
  43   22   52 1
  44   23   53 1
  45   23   54 1
  46   23   55 1
  47   24   25 ar
  48   24   26 ar
  49   25   29 ar
  50   25   56 1
  51   26   27 ar
  52   26   57 1
  53   27   28 ar
  54   27   32 1
  55   28   29 ar
  56   28   30 1
  57   29   58 1
  58   30   31 1
  59   31   59 1
  60   31   60 1
  61   31   61 1
  62   32   33 1
  63   33   62 1
  64   33   63 1
  65   33   64 1
  66   34   35 2
  67   34   36 2

#	End of record

