#	Name: ASD04882071
#	Creating user name:	WinNT
#	Creation time:	15. 06. 2019 20:54

#	Modifying user name:	WinNT
#	Modification time:	15. 06. 2019 20:54

#	Program:	/corina/corina34_cracker 3.40 0067  02.08.2006

@<TRIPOS>MOLECULE
ASD04882071
  76   80    0    0    0
SMALL
NO_CHARGES


@<TRIPOS>ATOM
   1 N1            -0.1363     1.5551    -0.0363 N.am    
   2 C2            -0.0765     0.1555    -0.0458 C.ar    
   3 C3            -1.2529    -0.5954     0.0294 C.ar    
   4 C4            -1.1950    -1.9843     0.0200 C.ar    
   5 C5             0.0210    -2.6254    -0.0639 C.ar    
   6 C6             1.2013    -1.8806    -0.1398 C.ar    
   7 C7             1.1456    -0.4840    -0.1354 C.ar    
   8 N8            -2.4846     0.0486     0.1143 N.3     
   9 C9            -2.6116     0.7769     1.3844 C.3     
  10 N10           -5.0473     0.5805     1.2345 N.3     
  11 C11           -3.9418     1.5336     1.4046 C.3     
  12 C12            0.8454     2.2676     0.5511 C.2     
  13 O13            1.7295     1.6965     1.1625 O.2     
  14 C14            0.8485     3.7306     0.4536 C.2     
  15 C15            2.5038    -2.5676    -0.2291 C.2     
  16 N16            2.5562    -3.9143    -0.2375 N.am    
  17 O17            3.5301    -1.9188    -0.2952 O.2     
  18 C18           -6.2828     1.2265     1.3197 C.ar    
  19 C19           -6.6026     2.2379     0.4232 C.ar    
  20 C20            1.7782     4.5692     0.9988 C.2     
  21 C21            3.8496    -4.5965    -0.3261 C.3     
  22 C22            4.4539    -4.7279     1.0733 C.3     
  23 C23            1.3920     5.8753     0.6592 C.2     
  24 C24            0.2579     5.7780    -0.0691 C.2     
  25 O25           -0.0635     4.4838    -0.1954 O.3     
  26 C26           -4.9203    -0.1478    -0.0356 C.3     
  27 C27           -3.5901    -0.9045    -0.0558 C.3     
  28 C28           -7.8255     2.8743     0.5099 C.ar    
  29 C29           -8.7305     2.5059     1.4881 C.ar    
  30 C30           -8.4152     1.4991     2.3825 C.ar    
  31 C31           -7.1968     0.8548     2.2978 C.ar    
  32 C32           -6.8543    -0.2424     3.2725 C.3     
  33 C33            3.6516    -5.9888    -0.9289 C.3     
  34 C34            5.0024    -6.7012    -1.0215 C.3     
  35 C35            4.8044    -8.0935    -1.6243 C.3     
  36 C36            3.8599    -8.9046    -0.7351 C.3     
  37 C37            2.5091    -8.1922    -0.6425 C.3     
  38 C38            2.7071    -6.7999    -0.0397 C.3     
  39 H39           -0.8822     2.0115    -0.4560 H       
  40 H40           -2.1057    -2.5620     0.0790 H       
  41 H41            0.0627    -3.7046    -0.0706 H       
  42 H42            2.0559     0.0941    -0.1944 H       
  43 H43           -2.5829     0.0698     2.2135 H       
  44 H44           -1.7888     1.4851     1.4814 H       
  45 H45           -4.0513     2.0512     2.3576 H       
  46 H46           -3.9595     2.2598     0.5919 H       
  47 H47            1.7375    -4.4319    -0.1848 H       
  48 H48           -5.8959     2.5266    -0.3407 H       
  49 H49            2.6429     4.2830     1.5791 H       
  50 H50            4.5225    -4.0186    -0.9597 H       
  51 H51            5.4162    -5.2355     1.0074 H       
  52 H52            4.5949    -3.7361     1.5028 H       
  53 H53            3.7810    -5.3058     1.7068 H       
  54 H54            1.9048     6.7866     0.9292 H       
  55 H55           -0.2960     6.6069    -0.4843 H       
  56 H56           -5.7431    -0.8560    -0.1325 H       
  57 H57           -4.9490     0.5593    -0.8646 H       
  58 H58           -3.4806    -1.4221    -1.0088 H       
  59 H59           -3.5725    -1.6307     0.7569 H       
  60 H60           -8.0748     3.6609    -0.1869 H       
  61 H61           -9.6856     3.0056     1.5542 H       
  62 H62           -9.1242     1.2140     3.1456 H       
  63 H63           -7.1829    -1.2009     2.8707 H       
  64 H64           -5.7759    -0.2649     3.4299 H       
  65 H65           -7.3562    -0.0549     4.2217 H       
  66 H66            3.2211    -5.8952    -1.9259 H       
  67 H67            5.6753    -6.1234    -1.6551 H       
  68 H68            5.4329    -6.7949    -0.0245 H       
  69 H69            4.3739    -7.9999    -2.6213 H       
  70 H70            5.7668    -8.6011    -1.6903 H       
  71 H71            3.7188    -9.8965    -1.1645 H       
  72 H72            4.2904    -8.9983     0.2619 H       
  73 H73            2.0786    -8.0985    -1.6395 H       
  74 H74            1.8362    -8.7700    -0.0090 H       
  75 H75            3.1376    -6.8935     0.9573 H       
  76 H76            1.7447    -6.2923     0.0263 H       
@<TRIPOS>BOND
   1    1    2 1
   2    1   12 am
   3    1   39 1
   4    2    3 ar
   5    2    7 ar
   6    3    4 ar
   7    3    8 1
   8    4    5 ar
   9    4   40 1
  10    5    6 ar
  11    5   41 1
  12    6    7 ar
  13    6   15 1
  14    7   42 1
  15    8    9 1
  16    8   27 1
  17    9   11 1
  18    9   43 1
  19    9   44 1
  20   10   11 1
  21   10   18 1
  22   10   26 1
  23   11   45 1
  24   11   46 1
  25   12   13 2
  26   12   14 1
  27   14   20 2
  28   14   25 1
  29   15   16 am
  30   15   17 2
  31   16   21 1
  32   16   47 1
  33   18   19 ar
  34   18   31 ar
  35   19   28 ar
  36   19   48 1
  37   20   23 1
  38   20   49 1
  39   21   22 1
  40   21   33 1
  41   21   50 1
  42   22   51 1
  43   22   52 1
  44   22   53 1
  45   23   24 2
  46   23   54 1
  47   24   25 1
  48   24   55 1
  49   26   27 1
  50   26   56 1
  51   26   57 1
  52   27   58 1
  53   27   59 1
  54   28   29 ar
  55   28   60 1
  56   29   30 ar
  57   29   61 1
  58   30   31 ar
  59   30   62 1
  60   31   32 1
  61   32   63 1
  62   32   64 1
  63   32   65 1
  64   33   34 1
  65   33   38 1
  66   33   66 1
  67   34   35 1
  68   34   67 1
  69   34   68 1
  70   35   36 1
  71   35   69 1
  72   35   70 1
  73   36   37 1
  74   36   71 1
  75   36   72 1
  76   37   38 1
  77   37   73 1
  78   37   74 1
  79   38   75 1
  80   38   76 1

#	End of record

