#	Name: ASD01670047
#	Creating user name:	WinNT
#	Creation time:	15. 06. 2019 19:22

#	Modifying user name:	WinNT
#	Modification time:	15. 06. 2019 19:22

#	Program:	/corina/corina34_cracker 3.40 0067  02.08.2006

@<TRIPOS>MOLECULE
ASD01670047
  68   71    0    0    0
SMALL
NO_CHARGES


@<TRIPOS>ATOM
   1 C1            -0.0167     1.3768     0.0096 C.ar    
   2 C2             0.0021    -0.0041     0.0020 C.ar    
   3 C3             1.2094    -0.6776    -0.0132 C.ar    
   4 C4             2.3942     0.0319    -0.0208 C.ar    
   5 C5             2.3775     1.4167    -0.0132 C.ar    
   6 C6             1.1706     2.0900     0.0021 C.ar    
   7 C7             1.4177     3.5834     0.0084 C.3     
   8 C8             2.8834     3.7521    -0.4448 C.3     
   9 C9             3.5184     2.4115    -0.0181 C.3     
  10 C10            4.1236     2.5321     1.3820 C.3     
  11 C11            4.7847     1.2309     1.7572 C.ar    
  12 C12            4.0944     0.2945     2.4944 C.ar    
  13 C13            4.6952    -0.9041     2.8418 C.ar    
  14 C14            5.9970    -1.1756     2.4513 C.ar    
  15 C15            6.7073    -0.2396     1.7089 C.ar    
  16 C16            6.0975     0.9708     1.3523 C.ar    
  17 C17            6.8388     1.9677     0.5587 C.2     
  18 O18            7.5044     2.8165     1.1180 O.2     
  19 O19            6.7782     1.9376    -0.7871 O.3     
  20 O20            7.9863    -0.4822     1.3222 O.3     
  21 C21            8.4246    -1.8445     1.3658 C.3     
  22 C22            7.9907    -2.4458     2.7095 C.3     
  23 O23            6.5641    -2.3638     2.7978 O.3     
  24 C24            8.4290    -3.9097     2.7853 C.3     
  25 C25            8.1054    -4.4678     4.1726 C.3     
  26 C26            8.5371    -5.9097     4.2473 C.2     
  27 O27            9.0510    -6.4368     3.2892 O.2     
  28 O28            8.3508    -6.6083     5.3782 O.3     
  29 N29            2.9626     3.9271    -1.8972 N.am    
  30 C30            2.8358     5.1561    -2.4357 C.2     
  31 O31            2.6562     6.1171    -1.7180 O.2     
  32 C32            2.9172     5.3361    -3.9297 C.3     
  33 C33            2.7431     6.8164    -4.2753 C.3     
  34 C34            2.8257     6.9991    -5.7921 C.3     
  35 C35            2.6516     8.4794    -6.1376 C.3     
  36 N36            2.7309     8.6549    -7.5940 N.3     
  37 H37           -0.9602     1.9023     0.0169 H       
  38 H38           -0.9255    -0.5573     0.0083 H       
  39 H39            1.2259    -1.7574    -0.0188 H       
  40 H40            3.3370    -0.4950    -0.0324 H       
  41 H41            0.7459     4.0809    -0.6911 H       
  42 H42            1.2839     3.9847     1.0130 H       
  43 H43            3.3556     4.5867     0.0734 H       
  44 H44            4.2809     2.1090    -0.7358 H       
  45 H45            4.8644     3.3316     1.3899 H       
  46 H46            3.3357     2.7596     2.1000 H       
  47 H47            3.0794     0.4961     2.8036 H       
  48 H48            4.1460    -1.6316     3.4209 H       
  49 H49            7.2810     2.6116    -1.2644 H       
  50 H50            7.9689    -2.4036     0.5486 H       
  51 H51            9.5104    -1.8843     1.2787 H       
  52 H52            8.4423    -1.8835     3.5268 H       
  53 H53            7.8986    -4.4874     2.0284 H       
  54 H54            9.5024    -3.9772     2.6079 H       
  55 H55            8.6358    -3.8900     4.9295 H       
  56 H56            7.0320    -4.4002     4.3501 H       
  57 H57            8.6440    -7.5298     5.3782 H       
  58 H58            3.1063     3.1585    -2.4712 H       
  59 H59            3.8886     4.9920    -4.2848 H       
  60 H60            2.1288     4.7559    -4.4091 H       
  61 H61            1.7717     7.1605    -3.9203 H       
  62 H62            3.5315     7.3966    -3.7959 H       
  63 H63            3.7971     6.6550    -6.1471 H       
  64 H64            2.0373     6.4189    -6.2715 H       
  65 H65            1.6802     8.8235    -5.7826 H       
  66 H66            3.4400     9.0596    -5.6583 H       
  67 H67            2.6187     9.6249    -7.8479 H       
  68 H68            3.5966     8.2840    -7.9562 H       
@<TRIPOS>BOND
   1    1    2 ar
   2    1    6 ar
   3    1   37 1
   4    2    3 ar
   5    2   38 1
   6    3    4 ar
   7    3   39 1
   8    4    5 ar
   9    4   40 1
  10    5    6 ar
  11    5    9 1
  12    6    7 1
  13    7    8 1
  14    7   41 1
  15    7   42 1
  16    8    9 1
  17    8   29 1
  18    8   43 1
  19    9   10 1
  20    9   44 1
  21   10   11 1
  22   10   45 1
  23   10   46 1
  24   11   12 ar
  25   11   16 ar
  26   12   13 ar
  27   12   47 1
  28   13   14 ar
  29   13   48 1
  30   14   15 ar
  31   14   23 1
  32   15   16 ar
  33   15   20 1
  34   16   17 1
  35   17   18 2
  36   17   19 1
  37   19   49 1
  38   20   21 1
  39   21   22 1
  40   21   50 1
  41   21   51 1
  42   22   23 1
  43   22   24 1
  44   22   52 1
  45   24   25 1
  46   24   53 1
  47   24   54 1
  48   25   26 1
  49   25   55 1
  50   25   56 1
  51   26   27 2
  52   26   28 1
  53   28   57 1
  54   29   30 am
  55   29   58 1
  56   30   31 2
  57   30   32 1
  58   32   33 1
  59   32   59 1
  60   32   60 1
  61   33   34 1
  62   33   61 1
  63   33   62 1
  64   34   35 1
  65   34   63 1
  66   34   64 1
  67   35   36 1
  68   35   65 1
  69   35   66 1
  70   36   67 1
  71   36   68 1

#	End of record

