#	Name: ASD01814287
#	Creating user name:	WinNT
#	Creation time:	15. 06. 2019 19:32

#	Modifying user name:	WinNT
#	Modification time:	15. 06. 2019 19:32

#	Program:	/corina/corina34_cracker 3.40 0067  02.08.2006

@<TRIPOS>MOLECULE
ASD01814287
  59   63    0    0    0
SMALL
NO_CHARGES


@<TRIPOS>ATOM
   1 C1             0.0075     1.3310    -0.1407 C.ar    
   2 C2             0.0327    -0.0552    -0.0270 C.ar    
   3 C3             1.2126    -0.7289     0.0830 C.ar    
   4 C4             2.4229    -0.0186     0.0815 C.ar    
   5 C5             2.3934     1.3926    -0.0350 C.ar    
   6 C6             1.1654     2.0528    -0.1456 C.ar    
   7 C7             3.6592    -0.6885     0.1933 C.ar    
   8 C8             4.8288    -0.0054     0.1916 C.ar    
   9 C9             4.8552     1.3935     0.0791 C.ar    
  10 C10            3.6575     2.1228    -0.0357 C.ar    
  11 C11            6.1173     2.1436     0.0767 C.2     
  12 N12            6.0426     3.4901    -0.0362 N.am    
  13 C13            4.8352     4.1073    -0.1423 C.2     
  14 N14            3.7061     3.4615    -0.1426 N.2     
  15 C15            3.6791    -2.1903     0.3172 C.3     
  16 C16            3.6269    -2.8084    -1.0562 C.ar    
  17 C17            4.7999    -3.0799    -1.7359 C.ar    
  18 C18            4.7547    -3.6465    -2.9949 C.ar    
  19 C19            3.5310    -3.9432    -3.5773 C.ar    
  20 C20            2.3555    -3.6698    -2.8933 C.ar    
  21 C21            2.4062    -3.1084    -1.6321 C.ar    
  22 O22            7.1903     1.5759     0.1730 O.2     
  23 C23            7.2066     4.2469    -0.0432 C.2     
  24 N24            7.8330     4.7610     1.0333 N.pl3   
  25 N25            8.9670     5.4549     0.5975 N.2     
  26 C26            9.0442     5.3762    -0.7014 C.2     
  27 C27            7.9480     4.6115    -1.1626 C.2     
  28 C28            7.3997     4.6176     2.4253 C.3     
  29 O29            3.4840    -4.5002    -4.8160 O.3     
  30 C30            2.1894    -4.7787    -5.3534 C.3     
  31 C31            7.6447     4.2734    -2.5594 C.2     
  32 O32            6.7214     3.5257    -2.8171 O.2     
  33 O33            8.3901     4.7923    -3.5556 O.3     
  34 C34            8.9836     5.0964    -5.8977 C.3     
  35 C35            8.0331     4.4147    -4.9115 C.3     
  36 H36           -0.9398     1.8418    -0.2307 H       
  37 H37           -0.8964    -0.6058    -0.0254 H       
  38 H38            1.2160    -1.8053     0.1713 H       
  39 H39            1.1337     3.1287    -0.2345 H       
  40 H40            5.7588    -0.5475     0.2788 H       
  41 H41            4.8129     5.1834    -0.2304 H       
  42 H42            4.5942    -2.5012     0.8211 H       
  43 H43            2.8160    -2.5185     0.8964 H       
  44 H44            5.7523    -2.8484    -1.2822 H       
  45 H45            5.6713    -3.8580    -3.5256 H       
  46 H46            1.4016    -3.8998    -3.3445 H       
  47 H47            1.4913    -2.8957    -1.0990 H       
  48 H48            9.8140     5.8160    -1.3181 H       
  49 H49            7.7682     3.6728     2.8250 H       
  50 H50            7.7978     5.4422     3.0166 H       
  51 H51            6.3107     4.6309     2.4701 H       
  52 H52            1.6666    -5.4759    -4.6986 H       
  53 H53            1.6196    -3.8524    -5.4269 H       
  54 H54            2.2947    -5.2202    -6.3444 H       
  55 H55           10.0072     4.7837    -5.6911 H       
  56 H56            8.7156     4.8129    -6.9156 H       
  57 H57            8.9052     6.1782    -5.7893 H       
  58 H58            8.1115     3.3330    -5.0199 H       
  59 H59            7.0096     4.7274    -5.1181 H       
@<TRIPOS>BOND
   1    1    2 ar
   2    1    6 ar
   3    1   36 1
   4    2    3 ar
   5    2   37 1
   6    3    4 ar
   7    3   38 1
   8    4    5 ar
   9    4    7 ar
  10    5    6 ar
  11    5   10 ar
  12    6   39 1
  13    7    8 ar
  14    7   15 1
  15    8    9 ar
  16    8   40 1
  17    9   10 ar
  18    9   11 1
  19   10   14 1
  20   11   12 am
  21   11   22 2
  22   12   13 1
  23   12   23 1
  24   13   14 2
  25   13   41 1
  26   15   16 1
  27   15   42 1
  28   15   43 1
  29   16   17 ar
  30   16   21 ar
  31   17   18 ar
  32   17   44 1
  33   18   19 ar
  34   18   45 1
  35   19   20 ar
  36   19   29 1
  37   20   21 ar
  38   20   46 1
  39   21   47 1
  40   23   24 1
  41   23   27 2
  42   24   25 1
  43   24   28 1
  44   25   26 2
  45   26   27 1
  46   26   48 1
  47   27   31 1
  48   28   49 1
  49   28   50 1
  50   28   51 1
  51   29   30 1
  52   30   52 1
  53   30   53 1
  54   30   54 1
  55   31   32 2
  56   31   33 1
  57   33   35 1
  58   34   35 1
  59   34   55 1
  60   34   56 1
  61   34   57 1
  62   35   58 1
  63   35   59 1

#	End of record

