#	Name: ASD01148904
#	Creating user name:	WinNT
#	Creation time:	15. 06. 2019 19:03

#	Modifying user name:	WinNT
#	Modification time:	15. 06. 2019 19:03

#	Program:	/corina/corina34_cracker 3.40 0067  02.08.2006

@<TRIPOS>MOLECULE
ASD01148904
  28   28    0    0    0
SMALL
NO_CHARGES


@<TRIPOS>ATOM
   1 C1            -0.0160     1.5101    -0.0666 C.2     
   2 C2             0.0076     0.0039    -0.1078 C.3     
   3 C3             1.4574    -0.4821    -0.1619 C.3     
   4 C4             1.4811    -1.9884    -0.2031 C.2     
   5 C5             2.7973    -2.7200    -0.2600 C.3     
   6 O6             1.0240     2.1334    -0.0793 O.2     
   7 O7             0.4453    -2.6091    -0.1905 O.2     
   8 C8            -1.3016     2.2248    -0.0171 C.ar    
   9 C9            -1.3276     3.6151     0.1334 C.ar    
  10 C10           -3.7213     3.5700     0.0755 C.ar    
  11 C11           -2.5032     1.5180    -0.1261 C.ar    
  12 C12           -2.5359     4.2774     0.1784 C.ar    
  13 C13           -3.7038     2.1949    -0.0793 C.ar    
  14 C14           -0.0383     4.3871     0.2465 C.3     
  15 H15           -0.4750    -0.3917     0.7859 H       
  16 H16           -0.5254    -0.3438    -0.9927 H       
  17 H17            1.9401    -0.0866    -1.0556 H       
  18 H18            1.9904    -0.1344     0.7230 H       
  19 H19            3.3896    -2.4713     0.6205 H       
  20 H20            2.6151    -3.7944    -0.2838 H       
  21 H21            3.3393    -2.4235    -1.1581 H       
  22 H22           -4.6647     4.0944     0.1118 H       
  23 H23           -2.4911     0.4448    -0.2470 H       
  24 H24           -2.5577     5.3509     0.2946 H       
  25 H25           -4.6328     1.6500    -0.1588 H       
  26 H26            0.3583     4.5800    -0.7502 H       
  27 H27           -0.2251     5.3341     0.7529 H       
  28 H28            0.6844     3.8054     0.8188 H       
@<TRIPOS>BOND
   1    1    2 1
   2    1    6 2
   3    1    8 1
   4    2    3 1
   5    2   15 1
   6    2   16 1
   7    3    4 1
   8    3   17 1
   9    3   18 1
  10    4    5 1
  11    4    7 2
  12    5   19 1
  13    5   20 1
  14    5   21 1
  15    8    9 ar
  16    8   11 ar
  17    9   12 ar
  18    9   14 1
  19   10   12 ar
  20   10   13 ar
  21   10   22 1
  22   11   13 ar
  23   11   23 1
  24   12   24 1
  25   13   25 1
  26   14   26 1
  27   14   27 1
  28   14   28 1

#	End of record

