#	Name: ASD01912907
#	Creating user name:	WinNT
#	Creation time:	15. 06. 2019 20:00

#	Modifying user name:	WinNT
#	Modification time:	15. 06. 2019 20:00

#	Program:	/corina/corina34_cracker 3.40 0067  02.08.2006

@<TRIPOS>MOLECULE
ASD01912907
  43   46    0    0    0
SMALL
NO_CHARGES


@<TRIPOS>ATOM
   1 C1            -0.0165     1.3669     0.0096 C.2     
   2 N2             0.0021    -0.0041     0.0020 N.pl3   
   3 C3            -1.2023    -0.6921     0.0098 C.2     
   4 C4            -2.3629    -0.0499     0.0243 C.2     
   5 N5            -2.4359     1.3309     0.0325 N.am    
   6 C6            -1.3020     2.0668     0.0309 C.2     
   7 C7             1.3014     1.7836    -0.0008 C.2     
   8 C8             2.0550     0.6110    -0.0143 C.2     
   9 N9             1.2244    -0.4045    -0.0118 N.2     
  10 O10           -1.3488     3.2837     0.0384 O.2     
  11 C11           -3.6786     1.9639     0.0478 C.ar    
  12 C12            3.5595     0.5249    -0.0291 C.3     
  13 O13            4.1120     1.8427    -0.0273 O.3     
  14 C14            5.4673     1.9435    -0.0397 C.ar    
  15 C15            6.0712     3.1925    -0.0388 C.ar    
  16 C16            7.4489     3.2922    -0.0514 C.ar    
  17 C17            8.2259     2.1486    -0.0650 C.ar    
  18 C18            7.6265     0.9027    -0.0664 C.ar    
  19 C19            6.2492     0.7975    -0.0476 C.ar    
  20 C20           -4.8437     1.2109     0.1598 C.ar    
  21 N21           -6.0179     1.8135     0.1744 N.ar    
  22 C22           -6.0879     3.1306     0.0827 C.ar    
  23 C23           -4.9321     3.8817    -0.0292 C.ar    
  24 N24           -3.7527     3.2855    -0.0389 N.ar    
  25 C25           -5.0174     5.3826    -0.1344 C.3     
  26 C26           -7.4304     3.8150     0.0997 C.3     
  27 H27           -1.1950    -1.7721     0.0036 H       
  28 H28           -3.2784    -0.6228     0.0296 H       
  29 H29            1.6684     2.7994     0.0012 H       
  30 H30            3.9013    -0.0136     0.8548 H       
  31 H31            3.8843    -0.0041    -0.9251 H       
  32 H32            5.4647     4.0860    -0.0285 H       
  33 H33            7.9195     4.2643    -0.0511 H       
  34 H34            9.3029     2.2287    -0.0749 H       
  35 H35            8.2356     0.0109    -0.0778 H       
  36 H36            5.7814    -0.1759    -0.0487 H       
  37 H37           -4.7871     0.1349     0.2344 H       
  38 H38           -4.9873     5.8191     0.8639 H       
  39 H39           -4.1758     5.7543    -0.7189 H       
  40 H40           -5.9507     5.6601    -0.6243 H       
  41 H41           -7.7034     4.0540     1.1276 H       
  42 H42           -7.3775     4.7334    -0.4850 H       
  43 H43           -8.1813     3.1528    -0.3310 H       
@<TRIPOS>BOND
   1    1    2 1
   2    1    7 2
   3    1    6 1
   4    2    3 1
   5    2    9 1
   6    3    4 2
   7    3   27 1
   8    4    5 1
   9    4   28 1
  10    5    6 am
  11    5   11 1
  12    6   10 2
  13    7    8 1
  14    7   29 1
  15    8    9 2
  16    8   12 1
  17   11   20 ar
  18   11   24 ar
  19   12   13 1
  20   12   30 1
  21   12   31 1
  22   13   14 1
  23   14   15 ar
  24   14   19 ar
  25   15   16 ar
  26   15   32 1
  27   16   17 ar
  28   16   33 1
  29   17   18 ar
  30   17   34 1
  31   18   19 ar
  32   18   35 1
  33   19   36 1
  34   20   21 ar
  35   20   37 1
  36   21   22 ar
  37   22   23 ar
  38   22   26 1
  39   23   24 ar
  40   23   25 1
  41   25   38 1
  42   25   39 1
  43   25   40 1
  44   26   41 1
  45   26   42 1
  46   26   43 1

#	End of record

