#	Name: ASD02560174
#	Creating user name:	WinNT
#	Creation time:	15. 06. 2019 20:24

#	Modifying user name:	WinNT
#	Modification time:	15. 06. 2019 20:24

#	Program:	/corina/corina34_cracker 3.40 0067  02.08.2006

@<TRIPOS>MOLECULE
ASD02560174
  53   55    0    0    0
SMALL
NO_CHARGES


@<TRIPOS>ATOM
   1 C1             6.7960     0.6143    -1.2239 C.ar    
   2 C2             7.3922     0.3952     0.0110 C.ar    
   3 C3             6.7274     0.7550     1.1759 C.ar    
   4 C4             5.4740     1.3305     1.1056 C.ar    
   5 C5             4.8791     1.5491    -0.1285 C.ar    
   6 C6             5.5426     1.1899    -1.2926 C.ar    
   7 N7             8.6620    -0.1884     0.0816 N.pl3   
   8 C8             9.2907    -0.4194     1.3845 C.3     
   9 C9             9.3629    -0.5683    -1.1476 C.3     
  10 C10           10.2114     0.6078    -1.6351 C.3     
  11 C11            8.9049    -1.8082     1.8978 C.3     
  12 O12            3.6449     2.1158    -0.1970 O.3     
  13 C13            3.5510     3.4625    -0.0355 C.ar    
  14 C14            2.3129     4.0935    -0.0958 C.ar    
  15 N15            2.1968     5.3957     0.0569 N.ar    
  16 C16            3.2499     6.1731     0.2760 C.ar    
  17 C17            4.5354     5.6058     0.3503 C.ar    
  18 C18            4.6877     4.2216     0.1967 C.ar    
  19 N19            3.0811     7.5324     0.4295 N.am    
  20 C20            4.1190     8.3553     0.6522 C.2     
  21 C21            5.4842     7.8382     0.7420 C.2     
  22 C22            5.6978     6.4644     0.5918 C.2     
  23 O23            1.7764     8.0769     0.3496 O.3     
  24 O24            6.9402     5.9438     0.6676 O.3     
  25 C25            6.6104     8.7455     0.9843 C.2     
  26 O26            3.9203     9.5501     0.7810 O.2     
  27 O27            6.4095    10.0787     1.0062 O.3     
  28 O28            7.7255     8.2956     1.1656 O.2     
  29 C29            7.5699    10.9163     1.2516 C.3     
  30 C30            7.1489    12.3872     1.2399 C.3     
  31 H31            7.3144     0.3388    -2.1304 H       
  32 H32            7.1903     0.5845     2.1367 H       
  33 H33            4.9567     1.6100     2.0114 H       
  34 H34            5.0787     1.3601    -2.2529 H       
  35 H35           10.3740    -0.3583     1.2812 H       
  36 H36            8.9498     0.3368     2.0916 H       
  37 H37           10.0081    -1.4239    -0.9482 H       
  38 H38            8.6346    -0.8333    -1.9140 H       
  39 H39           10.9397     0.8727    -0.8687 H       
  40 H40           10.7329     0.3251    -2.5496 H       
  41 H41            9.5662     1.4633    -1.8344 H       
  42 H42            9.3727    -1.9801     2.8672 H       
  43 H43            7.8216    -1.8694     2.0011 H       
  44 H44            9.2458    -2.5645     1.1907 H       
  45 H45            1.4269     3.5017    -0.2723 H       
  46 H46            5.6629     3.7605     0.2492 H       
  47 H47            1.7426     9.0360     0.4676 H       
  48 H48            7.6256     6.5913     0.8824 H       
  49 H49            7.9978    10.6686     2.2231 H       
  50 H50            8.3130    10.7449     0.4729 H       
  51 H51            6.4057    12.5587     2.0186 H       
  52 H52            8.0200    13.0160     1.4241 H       
  53 H53            6.7209    12.6349     0.2685 H       
@<TRIPOS>BOND
   1    1    2 ar
   2    1    6 ar
   3    1   31 1
   4    2    3 ar
   5    2    7 1
   6    3    4 ar
   7    3   32 1
   8    4    5 ar
   9    4   33 1
  10    5    6 ar
  11    5   12 1
  12    6   34 1
  13    7    8 1
  14    7    9 1
  15    8   11 1
  16    8   35 1
  17    8   36 1
  18    9   10 1
  19    9   37 1
  20    9   38 1
  21   10   39 1
  22   10   40 1
  23   10   41 1
  24   11   42 1
  25   11   43 1
  26   11   44 1
  27   12   13 1
  28   13   14 ar
  29   13   18 ar
  30   14   15 ar
  31   14   45 1
  32   15   16 ar
  33   16   17 ar
  34   16   19 1
  35   17   18 ar
  36   17   22 1
  37   18   46 1
  38   19   20 am
  39   19   23 1
  40   20   21 1
  41   20   26 2
  42   21   22 2
  43   21   25 1
  44   22   24 1
  45   23   47 1
  46   24   48 1
  47   25   27 1
  48   25   28 2
  49   27   29 1
  50   29   30 1
  51   29   49 1
  52   29   50 1
  53   30   51 1
  54   30   52 1
  55   30   53 1

#	End of record

