#	Name: ASD05430566
#	Creating user name:	WinNT
#	Creation time:	15. 06. 2019 21:00

#	Modifying user name:	WinNT
#	Modification time:	15. 06. 2019 21:00

#	Program:	/corina/corina34_cracker 3.40 0067  02.08.2006

@<TRIPOS>MOLECULE
ASD05430566
  28   28    0    0    0
SMALL
NO_CHARGES


@<TRIPOS>ATOM
   1 C1            -0.0168     1.3846     0.0097 C.ar    
   2 C2             0.0021    -0.0041     0.0020 C.ar    
   3 C3             1.1984     2.0513     0.0016 C.ar    
   4 N4             2.3244     1.3638    -0.0128 N.ar    
   5 N5             2.3418     0.0805    -0.0199 N.ar    
   6 C6             1.2349    -0.6374    -0.0132 C.ar    
   7 C7             1.2334     3.5578     0.0089 C.3     
   8 C8             1.3107    -2.1425    -0.0215 C.3     
   9 C9             1.2243    -2.6654     1.4138 C.3     
  10 C10            0.1486    -2.7072    -0.8409 C.3     
  11 C11            1.1061     4.0778    -1.4244 C.3     
  12 C12            0.0718     4.0909     0.8499 C.3     
  13 H13           -0.9498     1.9284     0.0171 H       
  14 H14           -0.9158    -0.5731     0.0081 H       
  15 H15            2.1770     3.8973     0.4361 H       
  16 H16            2.2551    -2.4562    -0.4662 H       
  17 H17            0.2799    -2.3516     1.8585 H       
  18 H18            1.2791    -3.7540     1.4078 H       
  19 H19            2.0522    -2.2631     1.9976 H       
  20 H20            0.2035    -3.7958    -0.8469 H       
  21 H21           -0.7958    -2.3934    -0.3962 H       
  22 H22            0.2102    -2.3346    -1.8634 H       
  23 H23            0.1625     3.7384    -1.8516 H       
  24 H24            1.1314     5.1675    -1.4191 H       
  25 H25            1.9337     3.6981    -2.0235 H       
  26 H26            0.1625     3.7204     1.8710 H       
  27 H27            0.0971     5.1806     0.8551 H       
  28 H28           -0.8718     3.7514     0.4227 H       
@<TRIPOS>BOND
   1    1    2 ar
   2    1    3 ar
   3    1   13 1
   4    2    6 ar
   5    2   14 1
   6    3    4 ar
   7    3    7 1
   8    4    5 ar
   9    5    6 ar
  10    6    8 1
  11    7   11 1
  12    7   12 1
  13    7   15 1
  14    8    9 1
  15    8   10 1
  16    8   16 1
  17    9   17 1
  18    9   18 1
  19    9   19 1
  20   10   20 1
  21   10   21 1
  22   10   22 1
  23   11   23 1
  24   11   24 1
  25   11   25 1
  26   12   26 1
  27   12   27 1
  28   12   28 1

#	End of record

