#	Name: ASD04870002
#	Creating user name:	WinNT
#	Creation time:	15. 06. 2019 20:52

#	Modifying user name:	WinNT
#	Modification time:	15. 06. 2019 20:52

#	Program:	/corina/corina34_cracker 3.40 0067  02.08.2006

@<TRIPOS>MOLECULE
ASD04870002
  49   52    0    0    0
SMALL
NO_CHARGES


@<TRIPOS>ATOM
   1 C1            -0.0533     1.2328     0.3270 C.ar    
   2 C2             0.0056    -0.1514     0.1732 C.ar    
   3 C3             1.2432    -0.7824     0.1146 C.ar    
   4 C4             2.4176    -0.0557     0.2070 C.ar    
   5 C5             2.3581     1.3344     0.3275 C.ar    
   6 C6             1.1108     1.9592     0.4024 C.ar    
   7 C7             3.7103    -0.7580     0.2215 C.3     
   8 C8             4.7583     0.0342    -0.6158 C.3     
   9 S9             5.0259     1.5564     0.3257 S.o2    
  10 N10            3.4774     2.1786     0.3341 N.am    
  11 N11            3.9315    -2.0749    -0.3421 N.pl3   
  12 N12            5.3500    -2.1327    -0.4603 N.2     
  13 C13            5.8844    -0.9576    -0.5999 C.2     
  14 O14            5.3149     1.2720     1.6876 O.2     
  15 O15            5.7934     2.4915    -0.4200 O.2     
  16 C16            3.2845     3.6308     0.3487 C.3     
  17 C17           -1.2433    -0.9457     0.0731 C.ar    
  18 C18           -2.4825    -0.3110     0.1326 C.ar    
  19 C19           -3.6412    -1.0549     0.0390 C.ar    
  20 C20           -3.5741    -2.4282    -0.1131 C.ar    
  21 C21           -2.3468    -3.0635    -0.1722 C.ar    
  22 C22           -1.1816    -2.3288    -0.0864 C.ar    
  23 C23           -4.8428    -3.2351    -0.2141 C.3     
  24 C24           -5.2593    -3.3488    -1.6820 C.3     
  25 C25            2.9418    -3.0939    -0.7006 C.3     
  26 C26            2.5432    -3.8801     0.5500 C.3     
  27 H27           -1.0092     1.7324     0.3823 H       
  28 H28            1.2888    -1.8548    -0.0044 H       
  29 H29            1.0606     3.0315     0.5217 H       
  30 H30            4.0690    -0.7848     1.2504 H       
  31 H31            4.4061     0.2418    -1.6263 H       
  32 H32            6.9378    -0.7363    -0.6878 H       
  33 H33            4.2553     4.1264     0.3379 H       
  34 H34            2.7138     3.9304    -0.5303 H       
  35 H35            2.7410     3.9161     1.2494 H       
  36 H36           -2.5361     0.7611     0.2520 H       
  37 H37           -4.6021    -0.5641     0.0850 H       
  38 H38           -2.3002    -4.1360    -0.2907 H       
  39 H39           -0.2239    -2.8259    -0.1331 H       
  40 H40           -4.6730    -4.2316     0.1936 H       
  41 H41           -5.6335    -2.7413     0.3507 H       
  42 H42           -4.4686    -3.8427    -2.2468 H       
  43 H43           -6.1769    -3.9325    -1.7551 H       
  44 H44           -5.4290    -2.3523    -2.0897 H       
  45 H45            2.0603    -2.6116    -1.1229 H       
  46 H46            3.3711    -3.7744    -1.4361 H       
  47 H47            3.4247    -4.3624     0.9722 H       
  48 H48            2.1140    -3.1996     1.2854 H       
  49 H49            1.8069    -4.6382     0.2832 H       
@<TRIPOS>BOND
   1    1    2 ar
   2    1    6 ar
   3    1   27 1
   4    2    3 ar
   5    2   17 1
   6    3    4 ar
   7    3   28 1
   8    4    5 ar
   9    4    7 1
  10    5    6 ar
  11    5   10 1
  12    6   29 1
  13    7    8 1
  14    7   11 1
  15    7   30 1
  16    8    9 1
  17    8   13 1
  18    8   31 1
  19    9   10 am
  20    9   14 2
  21    9   15 2
  22   10   16 1
  23   11   12 1
  24   11   25 1
  25   12   13 2
  26   13   32 1
  27   16   33 1
  28   16   34 1
  29   16   35 1
  30   17   18 ar
  31   17   22 ar
  32   18   19 ar
  33   18   36 1
  34   19   20 ar
  35   19   37 1
  36   20   21 ar
  37   20   23 1
  38   21   22 ar
  39   21   38 1
  40   22   39 1
  41   23   24 1
  42   23   40 1
  43   23   41 1
  44   24   42 1
  45   24   43 1
  46   24   44 1
  47   25   26 1
  48   25   45 1
  49   25   46 1
  50   26   47 1
  51   26   48 1
  52   26   49 1

#	End of record

