#	Name: ASD09610014
#	Creating user name:	WinNT
#	Creation time:	15. 06. 2019 21:22

#	Modifying user name:	WinNT
#	Modification time:	15. 06. 2019 21:22

#	Program:	/corina/corina34_cracker 3.40 0067  02.08.2006

@<TRIPOS>MOLECULE
ASD09610014
  49   51    0    0    0
SMALL
NO_CHARGES


@<TRIPOS>ATOM
   1 C1            -0.7436    -0.0621     1.3314 C.2     
   2 C2             0.0730    -0.0337     0.0954 C.2     
   3 O3            -0.3561    -0.6828     2.3015 O.2     
   4 N4            -1.9136     0.6050     1.3816 N.am    
   5 C5            -2.7211     0.5769     2.6037 C.3     
   6 N6            -0.3817     0.5570    -0.9717 N.2     
   7 O7             0.4375     0.6718    -2.1209 O.3     
   8 C8            -0.1456     1.4389    -3.1761 C.3     
   9 C9             1.4060    -0.6771     0.0740 C.ar    
  10 C10            1.5190    -2.0663     0.2079 C.ar    
  11 C11            2.7713    -2.6593     0.1862 C.ar    
  12 C12            3.9033    -1.8814     0.0334 C.ar    
  13 C13            3.7952    -0.5079    -0.0987 C.ar    
  14 C14            2.5550     0.0965    -0.0853 C.ar    
  15 O15            0.4060    -2.8294     0.3588 O.3     
  16 C16           -0.4781    -3.2054    -3.0500 C.ar    
  17 N17            0.1853    -2.8712    -1.9617 N.ar    
  18 C18           -0.2836    -3.1768    -0.7558 C.ar    
  19 C19           -1.4925    -3.8591    -0.6542 C.ar    
  20 C20           -2.1612    -4.1933    -1.8279 C.ar    
  21 N21           -1.6251    -3.8512    -2.9957 N.ar    
  22 F22           -2.0032    -4.1888     0.5523 F       
  23 O23           -3.3422    -4.8580    -1.7815 O.3     
  24 C24           -3.9011    -5.2488    -2.9569 C.ar    
  25 C25           -4.7139    -4.3747    -3.6643 C.ar    
  26 C26           -5.2811    -4.7748    -4.8598 C.ar    
  27 C27           -5.0384    -6.0461    -5.3504 C.ar    
  28 C28           -4.2292    -6.9181    -4.6465 C.ar    
  29 C29           -3.6551    -6.5203    -3.4543 C.ar    
  30 C30           -4.9785    -2.9907    -3.1298 C.3     
  31 Cl31          -6.2988    -3.6825    -5.7457 Cl      
  32 H32           -2.2211     1.1038     0.6085 H       
  33 H33           -2.9948    -0.4525     2.8347 H       
  34 H34           -2.1447     0.9937     3.4296 H       
  35 H35           -3.6244     1.1687     2.4560 H       
  36 H36           -1.1204     1.0233    -3.4316 H       
  37 H37           -0.2652     2.4723    -2.8508 H       
  38 H38            0.5039     1.4062    -4.0509 H       
  39 H39            2.8628    -3.7305     0.2891 H       
  40 H40            4.8774    -2.3477     0.0174 H       
  41 H41            4.6850     0.0927    -0.2170 H       
  42 H42            2.4746     1.1681    -0.1932 H       
  43 H43           -0.0720    -2.9382    -4.0144 H       
  44 H44           -5.4822    -6.3573    -6.2845 H       
  45 H45           -4.0419    -7.9097    -5.0311 H       
  46 H46           -3.0189    -7.2005    -2.9076 H       
  47 H47           -4.2212    -2.3042    -3.5082 H       
  48 H48           -5.9647    -2.6585    -3.4539 H       
  49 H49           -4.9409    -3.0086    -2.0406 H       
@<TRIPOS>BOND
   1    1    2 1
   2    1    3 2
   3    1    4 am
   4    2    6 2
   5    2    9 1
   6    4    5 1
   7    4   32 1
   8    5   33 1
   9    5   34 1
  10    5   35 1
  11    6    7 1
  12    7    8 1
  13    8   36 1
  14    8   37 1
  15    8   38 1
  16    9   10 ar
  17    9   14 ar
  18   10   11 ar
  19   10   15 1
  20   11   12 ar
  21   11   39 1
  22   12   13 ar
  23   12   40 1
  24   13   14 ar
  25   13   41 1
  26   14   42 1
  27   15   18 1
  28   16   17 ar
  29   16   21 ar
  30   16   43 1
  31   17   18 ar
  32   18   19 ar
  33   19   20 ar
  34   19   22 1
  35   20   21 ar
  36   20   23 1
  37   23   24 1
  38   24   25 ar
  39   24   29 ar
  40   25   26 ar
  41   25   30 1
  42   26   27 ar
  43   26   31 1
  44   27   28 ar
  45   27   44 1
  46   28   29 ar
  47   28   45 1
  48   29   46 1
  49   30   47 1
  50   30   48 1
  51   30   49 1

#	End of record

