#	Name: ASD01814059
#	Creating user name:	WinNT
#	Creation time:	15. 06. 2019 19:31

#	Modifying user name:	WinNT
#	Modification time:	15. 06. 2019 19:31

#	Program:	/corina/corina34_cracker 3.40 0067  02.08.2006

@<TRIPOS>MOLECULE
ASD01814059
  46   50    0    0    0
SMALL
NO_CHARGES


@<TRIPOS>ATOM
   1 C1             7.3399     1.2111    -0.2188 C.ar    
   2 C2             7.2565    -0.1728    -0.2199 C.ar    
   3 C3             6.0316    -0.8058    -0.1599 C.ar    
   4 C4             4.8606    -0.0528    -0.0969 C.ar    
   5 C5             4.9467     1.3499    -0.0954 C.ar    
   6 C6             6.1934     1.9775    -0.1571 C.ar    
   7 N7             3.6308    -0.6740    -0.0371 N.pl3   
   8 C8             2.4779     0.0043     0.0243 C.2     
   9 C9             2.4359     1.3839     0.0317 C.2     
  10 C10            3.7010     2.1343    -0.0284 C.2     
  11 F11            6.2765     3.3260    -0.1552 F       
  12 O12            3.7173     3.3529    -0.0242 O.2     
  13 C13            1.1498     2.0918     0.0985 C.2     
  14 O14            1.1218     3.4396     0.1052 O.3     
  15 O15            0.1112     1.4620     0.1478 O.2     
  16 C16            3.5837    -2.1382    -0.0413 C.3     
  17 C17            3.4395    -2.6321    -1.4578 C.ar    
  18 C18            4.5599    -2.7763    -2.2555 C.ar    
  19 C19            4.4311    -3.2282    -3.5542 C.ar    
  20 C20            3.1749    -3.5384    -4.0586 C.ar    
  21 C21            2.0517    -3.3929    -3.2547 C.ar    
  22 C22            2.1878    -2.9454    -1.9552 C.ar    
  23 N23            3.0409    -3.9963    -5.3748 N.pl3   
  24 F24            5.9677    -2.1553    -0.1627 F       
  25 C25            2.1300    -4.9232    -5.8171 C.ar    
  26 C26            2.3555    -5.0765    -7.2017 C.ar    
  27 C27            3.4201    -4.2136    -7.5441 C.2     
  28 N28            3.8089    -3.5842    -6.4715 N.2     
  29 C29            1.1228    -5.6688    -5.2167 C.ar    
  30 N30            0.3967    -6.5009    -5.9333 N.ar    
  31 C31            0.5829    -6.6679    -7.2338 C.ar    
  32 C32            1.5490    -5.9784    -7.9102 C.ar    
  33 Cl33          -0.4231    -7.7878    -8.0983 Cl      
  34 H34            8.3062     1.6916    -0.2621 H       
  35 H35            8.1602    -0.7622    -0.2685 H       
  36 H36            1.5500    -0.5465     0.0690 H       
  37 H37            0.2523     3.8604     0.1501 H       
  38 H38            4.5042    -2.5326     0.3891 H       
  39 H39            2.7324    -2.4761     0.5497 H       
  40 H40            5.5365    -2.5349    -1.8627 H       
  41 H41            5.3064    -3.3400    -4.1769 H       
  42 H42            1.0734    -3.6330    -3.6441 H       
  43 H43            1.3149    -2.8324    -1.3294 H       
  44 H44            3.8393    -4.0923    -8.5320 H       
  45 H45            0.9351    -5.5656    -4.1581 H       
  46 H46            1.6885    -6.1247    -8.9711 H       
@<TRIPOS>BOND
   1    1    2 ar
   2    1    6 ar
   3    1   34 1
   4    2    3 ar
   5    2   35 1
   6    3    4 ar
   7    3   24 1
   8    4    5 ar
   9    4    7 1
  10    5    6 ar
  11    5   10 1
  12    6   11 1
  13    7    8 1
  14    7   16 1
  15    8    9 2
  16    8   36 1
  17    9   10 1
  18    9   13 1
  19   10   12 2
  20   13   14 1
  21   13   15 2
  22   14   37 1
  23   16   17 1
  24   16   38 1
  25   16   39 1
  26   17   18 ar
  27   17   22 ar
  28   18   19 ar
  29   18   40 1
  30   19   20 ar
  31   19   41 1
  32   20   21 ar
  33   20   23 1
  34   21   22 ar
  35   21   42 1
  36   22   43 1
  37   23   25 1
  38   23   28 1
  39   25   26 ar
  40   25   29 ar
  41   26   27 1
  42   26   32 ar
  43   27   28 2
  44   27   44 1
  45   29   30 ar
  46   29   45 1
  47   30   31 ar
  48   31   32 ar
  49   31   33 1
  50   32   46 1

#	End of record

