#	Name: ASD04590129
#	Creating user name:	WinNT
#	Creation time:	15. 06. 2019 20:50

#	Modifying user name:	WinNT
#	Modification time:	15. 06. 2019 20:50

#	Program:	/corina/corina34_cracker 3.40 0067  02.08.2006

@<TRIPOS>MOLECULE
ASD04590129
  45   47    0    0    0
SMALL
NO_CHARGES


@<TRIPOS>ATOM
   1 N1            -0.0153     1.2802     0.0091 N.pl3   
   2 N2             0.0021    -0.0041     0.0020 N.2     
   3 C3             1.2455    -0.4440    -0.0122 C.2     
   4 C4             2.0903     0.6961    -0.0142 C.2     
   5 C5             1.2523     1.7667    -0.0004 C.2     
   6 C6             1.6764    -1.8547    -0.0235 C.2     
   7 N7             0.7570    -2.8402    -0.0200 N.am    
   8 O8             2.8611    -2.1284    -0.0359 O.2     
   9 N9             3.4929     0.7146    -0.0270 N.am    
  10 C10            4.1513     1.8906    -0.0271 C.2     
  11 C11            6.3144     3.1273    -0.0407 C.ar    
  12 C12            5.6285     1.9101    -0.0407 C.ar    
  13 C13            1.1850    -4.2412    -0.0312 C.3     
  14 C14            0.0893    -5.1159     0.5844 C.3     
  15 C15            0.5159    -6.5840     0.5145 C.3     
  16 N16            0.7410    -6.9635    -0.8861 N.3     
  17 C17            1.8215    -6.1692    -1.4844 C.3     
  18 C18            1.4339    -4.6888    -1.4743 C.3     
  19 C19            7.6958     3.1373    -0.0530 C.ar    
  20 C20            8.3985     1.9465    -0.0652 C.ar    
  21 C21            7.7245     0.7374    -0.0652 C.ar    
  22 C22            6.3458     0.7122    -0.0530 C.ar    
  23 O23            3.5296     2.9354    -0.0159 O.2     
  24 C24            1.0173    -8.4015    -1.0040 C.3     
  25 Cl25           5.4331     4.6229    -0.0327 Cl      
  26 H26           -0.8184     1.8242     0.0160 H       
  27 H27            1.5405     2.8076     0.0021 H       
  28 H28           -0.1880    -2.6218    -0.0102 H       
  29 H29            3.9889    -0.1189    -0.0359 H       
  30 H30            2.1029    -4.3464     0.5472 H       
  31 H31           -0.0625    -4.8302     1.6252 H       
  32 H32           -0.8392    -4.9800     0.0299 H       
  33 H33            1.4371    -6.7218     1.0807 H       
  34 H34           -0.2684    -7.2107     0.9391 H       
  35 H35            2.7365    -6.3090    -0.9089 H       
  36 H36            1.9854    -6.4947    -2.5117 H       
  37 H37            0.5265    -4.5461    -2.0611 H       
  38 H38            2.2426    -4.0979    -1.9042 H       
  39 H39            8.2279     4.0771    -0.0534 H       
  40 H40            9.4783     1.9598    -0.0751 H       
  41 H41            8.2800    -0.1887    -0.0747 H       
  42 H42            5.8219    -0.2322    -0.0527 H       
  43 H43            0.1681    -8.9672    -0.6207 H       
  44 H44            1.1801    -8.6555    -2.0514 H       
  45 H45            1.9086    -8.6486    -0.4273 H       
@<TRIPOS>BOND
   1    1    2 1
   2    1    5 1
   3    1   26 1
   4    2    3 2
   5    3    4 1
   6    3    6 1
   7    4    5 2
   8    4    9 1
   9    5   27 1
  10    6    7 am
  11    6    8 2
  12    7   13 1
  13    7   28 1
  14    9   10 am
  15    9   29 1
  16   10   23 2
  17   10   12 1
  18   11   12 ar
  19   11   19 ar
  20   11   25 1
  21   12   22 ar
  22   13   14 1
  23   13   18 1
  24   13   30 1
  25   14   15 1
  26   14   31 1
  27   14   32 1
  28   15   16 1
  29   15   33 1
  30   15   34 1
  31   16   17 1
  32   16   24 1
  33   17   18 1
  34   17   35 1
  35   17   36 1
  36   18   37 1
  37   18   38 1
  38   19   20 ar
  39   19   39 1
  40   20   21 ar
  41   20   40 1
  42   21   22 ar
  43   21   41 1
  44   22   42 1
  45   24   43 1
  46   24   44 1
  47   24   45 1

#	End of record

