#	Name: ASD01884331
#	Creating user name:	WinNT
#	Creation time:	15. 06. 2019 19:48

#	Modifying user name:	WinNT
#	Modification time:	15. 06. 2019 19:48

#	Program:	/corina/corina34_cracker 3.40 0067  02.08.2006

@<TRIPOS>MOLECULE
ASD01884331
  60   62    0    0    0
SMALL
NO_CHARGES


@<TRIPOS>ATOM
   1 C1             1.2728     1.6619     0.5404 C.2     
   2 C2             1.3391     0.6231    -0.4035 C.2     
   3 C3             1.5551     0.9501    -1.7550 C.2     
   4 C4             1.6941     2.2424    -2.1231 C.2     
   5 N5             1.6303     3.2478    -1.2117 N.am    
   6 C6             1.4200     2.9964     0.0937 C.2     
   7 O7             1.3669     3.9167     0.8919 O.2     
   8 C8             1.7871     4.6338    -1.6596 C.3     
   9 C9             0.4169     5.2113    -2.0202 C.3     
  10 C10            1.0547     1.3759     1.9265 C.1     
  11 N11            0.8817     1.1490     3.0261 N.1     
  12 N12            1.1960    -0.6894    -0.0135 N.pl3   
  13 N13           -0.0465    -1.2545     0.0399 N.3     
  14 C14           -0.0130    -2.5329     0.7638 C.3     
  15 C15           -1.4333    -3.0931     0.8704 C.3     
  16 N16           -1.9901    -3.2693    -0.4782 N.3     
  17 C17           -2.0235    -1.9909    -1.2022 C.3     
  18 C18           -0.6032    -1.4307    -1.3087 C.3     
  19 C19            0.5807     6.6588    -2.4880 C.3     
  20 C20            1.3865     6.6865    -3.7883 C.3     
  21 C21           -0.7984     7.2759    -2.7294 C.3     
  22 C22           -3.3262    -3.8770    -0.4208 C.3     
  23 C23           -3.9640    -3.8178    -1.7849 C.ar    
  24 C24           -3.7830    -4.8571    -2.6782 C.ar    
  25 C25           -4.3679    -4.8028    -3.9295 C.ar    
  26 C26           -5.1342    -3.7094    -4.2874 C.ar    
  27 C27           -5.3160    -2.6705    -3.3938 C.ar    
  28 C28           -4.7346    -2.7268    -2.1409 C.ar    
  29 C29            2.3763    -1.4801     0.3444 C.3     
  30 H30            1.6099     0.1681    -2.4978 H       
  31 H31            1.8598     2.4812    -3.1633 H       
  32 H32            2.2320     5.2260    -0.8599 H       
  33 H33            2.4350     4.6614    -2.5357 H       
  34 H34           -0.0279     4.6192    -2.8199 H       
  35 H35           -0.2310     5.1837    -1.1441 H       
  36 H36            0.6173    -3.2399     0.2244 H       
  37 H37            0.3912    -2.3742     1.7636 H       
  38 H38           -1.4072    -4.0555     1.3816 H       
  39 H39           -2.0569    -2.3987     1.4334 H       
  40 H40           -2.4278    -2.1496    -2.2019 H       
  41 H41           -2.6538    -1.2839    -0.6627 H       
  42 H42           -0.6293    -0.4684    -1.8199 H       
  43 H43            0.0203    -2.1252    -1.8717 H       
  44 H44            1.1057     7.2307    -1.7229 H       
  45 H45            1.5032     7.7177    -4.1216 H       
  46 H46            2.3690     6.2469    -3.6163 H       
  47 H47            0.8615     6.1146    -4.5534 H       
  48 H48           -1.3725     7.2562    -1.8031 H       
  49 H49           -0.6817     8.3071    -3.0627 H       
  50 H50           -1.3235     6.7040    -3.4945 H       
  51 H51           -3.2393    -4.9167    -0.1052 H       
  52 H52           -3.9434    -3.3310     0.2928 H       
  53 H53           -3.1842    -5.7114    -2.3987 H       
  54 H54           -4.2259    -5.6145    -4.6277 H       
  55 H55           -5.5907    -3.6666    -5.2653 H       
  56 H56           -5.9145    -1.8161    -3.6735 H       
  57 H57           -4.8767    -1.9152    -1.4427 H       
  58 H58            2.1258    -2.1579     1.1604 H       
  59 H59            2.7025    -2.0577    -0.5205 H       
  60 H60            3.1786    -0.8130     0.6594 H       
@<TRIPOS>BOND
   1    1    2 2
   2    1   10 1
   3    1    6 1
   4    2    3 1
   5    2   12 1
   6    3    4 2
   7    3   30 1
   8    4    5 1
   9    4   31 1
  10    5    6 am
  11    5    8 1
  12    6    7 2
  13    8    9 1
  14    8   32 1
  15    8   33 1
  16    9   19 1
  17    9   34 1
  18    9   35 1
  19   10   11 3
  20   12   13 1
  21   12   29 1
  22   13   14 1
  23   13   18 1
  24   14   15 1
  25   14   36 1
  26   14   37 1
  27   15   16 1
  28   15   38 1
  29   15   39 1
  30   16   17 1
  31   16   22 1
  32   17   18 1
  33   17   40 1
  34   17   41 1
  35   18   42 1
  36   18   43 1
  37   19   20 1
  38   19   21 1
  39   19   44 1
  40   20   45 1
  41   20   46 1
  42   20   47 1
  43   21   48 1
  44   21   49 1
  45   21   50 1
  46   22   23 1
  47   22   51 1
  48   22   52 1
  49   23   24 ar
  50   23   28 ar
  51   24   25 ar
  52   24   53 1
  53   25   26 ar
  54   25   54 1
  55   26   27 ar
  56   26   55 1
  57   27   28 ar
  58   27   56 1
  59   28   57 1
  60   29   58 1
  61   29   59 1
  62   29   60 1

#	End of record

