#	Name: ASD01410662
#	Creating user name:	WinNT
#	Creation time:	15. 06. 2019 19:18

#	Modifying user name:	WinNT
#	Modification time:	15. 06. 2019 19:18

#	Program:	/corina/corina34_cracker 3.40 0067  02.08.2006

@<TRIPOS>MOLECULE
ASD01410662
  70   73    0    0    0
SMALL
NO_CHARGES


@<TRIPOS>ATOM
   1 C1             0.2268    -3.3367     1.2022 C.ar    
   2 C2             0.9470    -3.8180     2.2866 C.ar    
   3 C3             2.3194    -3.6656     2.3075 C.ar    
   4 N4             2.9489    -3.0704     1.3126 N.ar    
   5 C5             2.2975    -2.5987     0.2622 C.ar    
   6 C6             0.9163    -2.7171     0.1743 C.ar    
   7 O7             2.9849    -1.9935    -0.7386 O.3     
   8 C8             4.3258    -1.8295    -0.5837 C.ar    
   9 C9             5.1787    -2.9160    -0.7375 C.ar    
  10 C10            6.5413    -2.7607    -0.5825 C.ar    
  11 C11            7.0698    -1.5157    -0.2708 C.ar    
  12 C12            6.2140    -0.4147    -0.1142 C.ar    
  13 C13            4.8369    -0.5810    -0.2792 C.ar    
  14 N14            8.4461    -1.3597    -0.1135 N.am    
  15 C15            9.2250    -1.1255    -1.1882 C.2     
  16 C16            9.0459    -1.4502     1.2201 C.3     
  17 O17           10.4297    -1.0635    -1.0621 O.2     
  18 C18            8.5991    -0.9407    -2.5465 C.3     
  19 C19            0.2389    -4.4993     3.4292 C.3     
  20 C20            9.6197    -1.2927    -3.6306 C.3     
  21 C21            8.9842    -1.1051    -5.0096 C.3     
  22 C22            8.5461     0.3514    -5.1754 C.3     
  23 C23            7.5254     0.7034    -4.0913 C.3     
  24 C24            8.1609     0.5158    -2.7123 C.3     
  25 C25            7.9106     0.5390    -6.5545 C.3     
  26 C26            9.3105    -2.9180     1.5616 C.3     
  27 O27           10.3141    -3.4371     0.6869 O.3     
  28 C28           10.6377    -4.8089     0.9227 C.3     
  29 N29            0.1539    -5.9374     3.1631 N.pl3   
  30 N30            1.0391    -6.7998     3.5188 N.2     
  31 N31           -0.8188    -6.5102     2.5470 N.2     
  32 C32           -0.5757    -7.7996     2.4819 C.2     
  33 C33            0.6503    -7.9907     3.1233 C.2     
  34 C34            0.1785    -2.1782    -1.0241 C.3     
  35 F35           -1.1916    -2.4191    -0.8753 F       
  36 F36            0.4012    -0.8010    -1.1284 F       
  37 F37            0.6408    -2.8143    -2.1812 F       
  38 C38            6.7657     0.9113     0.2172 C.2     
  39 O39            7.9646     1.0532     0.3556 O.2     
  40 O40            5.9406     1.9662     0.3668 O.3     
  41 H41           -0.8467    -3.4471     1.1593 H       
  42 H42            2.8844    -4.0381     3.1492 H       
  43 H43            4.7730    -3.8872    -0.9793 H       
  44 H44            7.1977    -3.6097    -0.7036 H       
  45 H45            4.1719     0.2616    -0.1603 H       
  46 H46            9.9860    -0.8988     1.2339 H       
  47 H47            8.3635    -1.0235     1.9551 H       
  48 H48            7.7313    -1.5939    -2.6386 H       
  49 H49            0.7945    -4.3327     4.3520 H       
  50 H50           -0.7657    -4.0886     3.5307 H       
  51 H51           10.4875    -0.6395    -3.5385 H       
  52 H52            9.9319    -2.3304    -3.5125 H       
  53 H53            9.7114    -1.3559    -5.7819 H       
  54 H54            8.1165    -1.7583    -5.1017 H       
  55 H55            9.4138     1.0046    -5.0833 H       
  56 H56            7.2132     1.7411    -4.2094 H       
  57 H57            6.6577     0.0502    -4.1834 H       
  58 H58            7.4337     0.7666    -1.9400 H       
  59 H59            9.0286     1.1690    -2.6202 H       
  60 H60            7.0428    -0.1142    -6.6466 H       
  61 H61            7.5984     1.5767    -6.6725 H       
  62 H62            8.6377     0.2882    -7.3268 H       
  63 H63            9.6529    -2.9948     2.5936 H       
  64 H64            8.3911    -3.4907     1.4402 H       
  65 H65           11.4064    -5.1272     0.2186 H       
  66 H66           11.0076    -4.9250     1.9414 H       
  67 H67            9.7458    -5.4209     0.7881 H       
  68 H68           -1.1980    -8.5570     2.0286 H       
  69 H69            1.1721    -8.9258     3.2643 H       
  70 H70            6.3488     2.8154     0.5840 H       
@<TRIPOS>BOND
   1    1    2 ar
   2    1    6 ar
   3    1   41 1
   4    2    3 ar
   5    2   19 1
   6    3    4 ar
   7    3   42 1
   8    4    5 ar
   9    5    6 ar
  10    5    7 1
  11    6   34 1
  12    7    8 1
  13    8    9 ar
  14    8   13 ar
  15    9   10 ar
  16    9   43 1
  17   10   11 ar
  18   10   44 1
  19   11   12 ar
  20   11   14 1
  21   12   13 ar
  22   12   38 1
  23   13   45 1
  24   14   15 am
  25   14   16 1
  26   15   17 2
  27   15   18 1
  28   16   26 1
  29   16   46 1
  30   16   47 1
  31   18   20 1
  32   18   24 1
  33   18   48 1
  34   19   29 1
  35   19   49 1
  36   19   50 1
  37   20   21 1
  38   20   51 1
  39   20   52 1
  40   21   22 1
  41   21   53 1
  42   21   54 1
  43   22   23 1
  44   22   25 1
  45   22   55 1
  46   23   24 1
  47   23   56 1
  48   23   57 1
  49   24   58 1
  50   24   59 1
  51   25   60 1
  52   25   61 1
  53   25   62 1
  54   26   27 1
  55   26   63 1
  56   26   64 1
  57   27   28 1
  58   28   65 1
  59   28   66 1
  60   28   67 1
  61   29   30 1
  62   29   31 1
  63   30   33 2
  64   31   32 2
  65   32   33 1
  66   32   68 1
  67   33   69 1
  68   34   35 1
  69   34   36 1
  70   34   37 1
  71   38   39 2
  72   38   40 1
  73   40   70 1

#	End of record

