#	Name: ASD00840007
#	Creating user name:	WinNT
#	Creation time:	15. 06. 2019 18:37

#	Modifying user name:	WinNT
#	Modification time:	15. 06. 2019 18:37

#	Program:	/corina/corina34_cracker 3.40 0067  02.08.2006

@<TRIPOS>MOLECULE
ASD00840007
  90   95    0    0    0
SMALL
NO_CHARGES


@<TRIPOS>ATOM
   1 N1            -0.0057     1.3211     0.0335 N.ar    
   2 C2             0.0085    -0.0012     0.0173 C.ar    
   3 C3             1.2114    -0.6959    -0.0023 C.ar    
   4 C4             2.3990     0.0142    -0.0048 C.ar    
   5 C5             2.3412     1.4012     0.0125 C.ar    
   6 C6             1.1102     2.0256     0.0316 C.ar    
   7 C7             1.2227    -2.2028    -0.0203 C.3     
   8 C8             0.4753    -2.7244    -1.2290 C.2     
   9 N9             2.5991    -2.7046    -0.0119 N.am    
  10 C10            3.4467    -2.3635    -1.0028 C.2     
  11 N11            4.7402    -2.7372    -0.9415 N.am    
  12 O12            3.0444    -1.7188    -1.9519 O.2     
  13 C13            5.6553    -2.4759    -2.0628 C.3     
  14 C14            6.9060    -1.7778    -1.5180 C.3     
  15 N15            7.4742    -2.5800    -0.4264 N.3     
  16 C16            6.5396    -2.6819     0.7024 C.3     
  17 C17            5.2754    -3.4115     0.2510 C.3     
  18 C18            8.7676    -2.0360     0.0085 C.3     
  19 C19            9.2691    -2.8190     1.2250 C.3     
  20 C20           10.6443    -2.2880     1.6359 C.3     
  21 N21           11.5822    -2.4357     0.5156 N.3     
  22 C22           11.1459    -1.6543    -0.6486 C.3     
  23 C23            9.7857    -2.1664    -1.1277 C.3     
  24 C24           12.9454    -2.0645     0.9179 C.3     
  25 O25            0.7555    -2.5224    -2.3916 O.2     
  26 N26           -0.5570    -3.4529    -0.7719 N.am    
  27 C27            0.4486    -2.7521     1.1560 C.ar    
  28 C28           -0.6015    -3.4894     0.6228 C.ar    
  29 C29            0.6135    -2.6416     2.5183 C.ar    
  30 C30           -0.2743    -3.2704     3.3751 C.ar    
  31 C31           -1.3259    -4.0088     2.8560 C.ar    
  32 C32           -1.4918    -4.1200     1.4887 C.ar    
  33 Cl33          -0.0703    -3.1345     5.0937 Cl      
  34 F34           -2.1929    -4.6227     3.6906 F       
  35 C35           -1.0270    -5.8373    -2.0636 C.ar    
  36 C36            0.1507    -5.9997    -2.7789 C.ar    
  37 C37           -1.7081    -6.9432    -1.5913 C.ar    
  38 C38           -1.2181    -8.2128    -1.8296 C.ar    
  39 C39           -0.0405    -8.3805    -2.5447 C.ar    
  40 C40            0.6442    -7.2729    -3.0199 C.ar    
  41 O41            0.4407    -9.6296    -2.7793 O.3     
  42 O42            0.8197    -4.9118    -3.2434 O.3     
  43 C43            2.0251    -5.1537    -3.9719 C.3     
  44 C44           -0.3168   -10.7246    -2.2606 C.3     
  45 O45           -1.1628    -0.6858     0.0204 O.3     
  46 C46           -3.5737    -0.8525     0.0419 C.3     
  47 C47           -2.3653     0.0860     0.0415 C.3     
  48 S48           -1.6510    -4.2195    -1.7507 S.o2    
  49 O49           -2.8319    -4.3872    -0.9784 O.2     
  50 O50           -1.6268    -3.5326    -2.9945 O.2     
  51 H51            3.3493    -0.4988    -0.0196 H       
  52 H52            3.2495     1.9854     0.0115 H       
  53 H53            1.0596     3.1044     0.0448 H       
  54 H54            2.9004    -3.2822     0.7067 H       
  55 H55            5.9373    -3.4182    -2.5325 H       
  56 H56            5.1653    -1.8318    -2.7930 H       
  57 H57            7.6420    -1.6755    -2.3154 H       
  58 H58            6.6369    -0.7907    -1.1420 H       
  59 H59            7.0100    -3.2353     1.5152 H       
  60 H60            6.2757    -1.6822     1.0474 H       
  61 H61            4.5345    -3.3888     1.0500 H       
  62 H62            5.5180    -4.4446     0.0021 H       
  63 H63            8.6500    -0.9855     0.2747 H       
  64 H64            8.5693    -2.6950     2.0514 H       
  65 H65            9.3484    -3.8758     0.9701 H       
  66 H66           10.5616    -1.2347     1.9039 H       
  67 H67           11.0105    -2.8530     2.4931 H       
  68 H68           11.0609    -0.6039    -0.3699 H       
  69 H69           11.8765    -1.7590    -1.4507 H       
  70 H70            9.8731    -3.2129    -1.4197 H       
  71 H71            9.4550    -1.5761    -1.9822 H       
  72 H72           13.2716    -2.7092     1.7341 H       
  73 H73           13.6195    -2.1831     0.0696 H       
  74 H74           12.9566    -1.0259     1.2485 H       
  75 H75            1.4347    -2.0654     2.9184 H       
  76 H76           -2.3136    -4.6967     1.0907 H       
  77 H77           -2.6246    -6.8148    -1.0346 H       
  78 H78           -1.7518    -9.0755    -1.4589 H       
  79 H79            1.5606    -7.4013    -3.5768 H       
  80 H80            2.4577    -4.2033    -4.2844 H       
  81 H81            2.7339    -5.6839    -3.3357 H       
  82 H82            1.8031    -5.7585    -4.8511 H       
  83 H83           -0.3870   -10.6366    -1.1764 H       
  84 H84           -1.3178   -10.7106    -2.6918 H       
  85 H85            0.1766   -11.6619    -2.5178 H       
  86 H86           -3.5542    -1.4703    -0.8559 H       
  87 H87           -3.5369    -1.4919     0.9238 H       
  88 H88           -4.4909    -0.2638     0.0579 H       
  89 H89           -2.3848     0.7038     0.9393 H       
  90 H90           -2.4021     0.7254    -0.8405 H       
@<TRIPOS>BOND
   1    1    2 ar
   2    1    6 ar
   3    2    3 ar
   4    2   45 1
   5    3    4 ar
   6    3    7 1
   7    4    5 ar
   8    4   51 1
   9    5    6 ar
  10    5   52 1
  11    6   53 1
  12    7    8 1
  13    7    9 1
  14    7   27 1
  15    8   25 2
  16    8   26 am
  17    9   10 am
  18    9   54 1
  19   10   11 am
  20   10   12 2
  21   11   13 1
  22   11   17 1
  23   13   14 1
  24   13   55 1
  25   13   56 1
  26   14   15 1
  27   14   57 1
  28   14   58 1
  29   15   16 1
  30   15   18 1
  31   16   17 1
  32   16   59 1
  33   16   60 1
  34   17   61 1
  35   17   62 1
  36   18   19 1
  37   18   23 1
  38   18   63 1
  39   19   20 1
  40   19   64 1
  41   19   65 1
  42   20   21 1
  43   20   66 1
  44   20   67 1
  45   21   22 1
  46   21   24 1
  47   22   23 1
  48   22   68 1
  49   22   69 1
  50   23   70 1
  51   23   71 1
  52   24   72 1
  53   24   73 1
  54   24   74 1
  55   26   48 am
  56   26   28 1
  57   27   28 ar
  58   27   29 ar
  59   28   32 ar
  60   29   30 ar
  61   29   75 1
  62   30   31 ar
  63   30   33 1
  64   31   32 ar
  65   31   34 1
  66   32   76 1
  67   35   36 ar
  68   35   37 ar
  69   35   48 1
  70   36   42 1
  71   36   40 ar
  72   37   38 ar
  73   37   77 1
  74   38   39 ar
  75   38   78 1
  76   39   40 ar
  77   39   41 1
  78   40   79 1
  79   41   44 1
  80   42   43 1
  81   43   80 1
  82   43   81 1
  83   43   82 1
  84   44   83 1
  85   44   84 1
  86   44   85 1
  87   45   47 1
  88   46   47 1
  89   46   86 1
  90   46   87 1
  91   46   88 1
  92   47   89 1
  93   47   90 1
  94   48   49 2
  95   48   50 2

#	End of record

