#	Name: ASD03092582
#	Creating user name:	WinNT
#	Creation time:	15. 06. 2019 20:32

#	Modifying user name:	WinNT
#	Modification time:	15. 06. 2019 20:32

#	Program:	/corina/corina34_cracker 3.40 0067  02.08.2006

@<TRIPOS>MOLECULE
ASD03092582
  34   36    0    0    0
SMALL
NO_CHARGES


@<TRIPOS>ATOM
   1 O1            -0.0144     1.2087     0.0087 O.3     
   2 N2             0.0021    -0.0041     0.0020 N.2     
   3 C3             1.2350    -0.4366    -0.0121 C.2     
   4 N4             2.0397     0.6501    -0.0139 N.2     
   5 C5             1.2354     1.6833    -0.0007 C.2     
   6 C6             1.6708    -1.8557    -0.0239 C.2     
   7 O7             2.8548    -2.1274    -0.0362 O.2     
   8 N8             0.7529    -2.8425    -0.0209 N.am    
   9 C9             1.1829    -4.2429    -0.0325 C.3     
  10 N10           -3.3378    -7.5936    -0.2829 N.pl3   
  11 C11           -3.4858    -7.6864    -1.6400 C.2     
  12 C12           -2.5313    -6.9699    -2.2544 C.2     
  13 C13           -1.7045    -6.3691    -1.2050 C.ar    
  14 C14           -0.5830    -5.5373    -1.2099 C.ar    
  15 C15           -0.0278    -5.1403    -0.0264 C.ar    
  16 C16           -0.5697    -5.5573     1.1818 C.ar    
  17 C17           -1.6754    -6.3783     1.2098 C.ar    
  18 C18           -2.2571    -6.7948     0.0166 C.ar    
  19 C19           -4.5607    -8.4764    -2.3411 C.3     
  20 C20            1.6420     3.1344     0.0028 C.3     
  21 H21           -0.1925    -2.6256    -0.0111 H       
  22 H22            1.7726    -4.4345    -0.9290 H       
  23 H23            1.7889    -4.4443     0.8509 H       
  24 H24           -3.9114    -8.0232     0.3708 H       
  25 H25           -2.3982    -6.8576    -3.3203 H       
  26 H26           -0.1555    -5.2096    -2.1460 H       
  27 H27           -0.1195    -5.2351     2.1092 H       
  28 H28           -2.0894    -6.6976     2.1548 H       
  29 H29           -5.4327    -7.8419    -2.5001 H       
  30 H30           -4.1857    -8.8262    -3.3029 H       
  31 H31           -4.8413    -9.3324    -1.7273 H       
  32 H32            0.7506     3.7615     0.0148 H       
  33 H33            2.2436     3.3411     0.8880 H       
  34 H34            2.2261     3.3502    -0.8919 H       
@<TRIPOS>BOND
   1    1    2 1
   2    1    5 1
   3    2    3 2
   4    3    4 1
   5    3    6 1
   6    4    5 2
   7    5   20 1
   8    6    7 2
   9    6    8 am
  10    8    9 1
  11    8   21 1
  12    9   15 1
  13    9   22 1
  14    9   23 1
  15   10   11 1
  16   10   18 1
  17   10   24 1
  18   11   12 2
  19   11   19 1
  20   12   13 1
  21   12   25 1
  22   13   14 ar
  23   13   18 ar
  24   14   15 ar
  25   14   26 1
  26   15   16 ar
  27   16   17 ar
  28   16   27 1
  29   17   18 ar
  30   17   28 1
  31   19   29 1
  32   19   30 1
  33   19   31 1
  34   20   32 1
  35   20   33 1
  36   20   34 1

#	End of record

