#	Name: ASD02610014
#	Creating user name:	WinNT
#	Creation time:	15. 06. 2019 20:25

#	Modifying user name:	WinNT
#	Modification time:	15. 06. 2019 20:25

#	Program:	/corina/corina34_cracker 3.40 0067  02.08.2006

@<TRIPOS>MOLECULE
ASD02610014
  89   91    0    0    0
SMALL
NO_CHARGES


@<TRIPOS>ATOM
   1 C1             0.3139     1.1214    -0.2530 C.3     
   2 C2             0.6867    -0.3731    -0.3605 C.3     
   3 C3             2.1909    -0.4274    -0.4507 C.2     
   4 C4             2.7261     0.7555    -0.3720 C.2     
   5 C5             1.6691     1.7996    -0.1264 C.3     
   6 C6             4.1706     1.1196    -0.6095 C.3     
   7 C7             4.5528     2.2886     0.2714 C.3     
   8 C8             4.2476     3.6377    -0.2951 C.3     
   9 C9             2.8172     4.0457    -0.0487 C.3     
  10 C10            1.8504     3.1102    -0.7764 C.3     
  11 O11            0.1035    -0.9415    -1.5348 O.3     
  12 C12            2.9804    -1.7008    -0.6123 C.3     
  13 O13           -0.4956     1.3658     0.9274 O.3     
  14 H14            1.7568     2.0165     0.9382 H       
  15 O15            0.5567     3.7632    -0.8663 O.3     
  16 C16            2.3727     2.8803    -2.1960 C.3     
  17 O17            4.4917     3.6145    -1.7263 O.3     
  18 C18            4.8770     4.7665    -2.2974 C.2     
  19 C19            5.1487     4.8192    -3.7788 C.3     
  20 O20            5.0060     5.7613    -1.6238 O.2     
  21 O21            5.1021     0.0623    -0.2592 O.3     
  22 C22            6.2955     0.6548    -0.0097 C.2     
  23 C23            6.0291     2.0256     0.5958 C.3     
  24 O24            3.8180     2.1633     1.4906 O.3     
  25 C25            5.5686     6.2374    -4.1702 C.3     
  26 C26            5.8444     6.2908    -5.6742 C.3     
  27 C27           -1.8277     1.2966     0.7778 C.2     
  28 C28           -2.7321     1.5386     1.9587 C.3     
  29 C29           -4.1914     1.4009     1.5200 C.3     
  30 C30           -5.1097     1.6465     2.7189 C.3     
  31 C31           -6.5690     1.5088     2.2803 C.3     
  32 C32           -7.4872     1.7545     3.4792 C.3     
  33 O33           -2.3017     1.0403    -0.3037 O.2     
  34 O34            7.3833     0.1770    -0.2300 O.2     
  35 O35            6.8743     3.0301    -0.0247 O.3     
  36 C36           -8.9465     1.6167     3.0406 C.3     
  37 C37           -9.8648     1.8624     4.2395 C.3     
  38 C38            6.2497     1.9964     2.1095 C.3     
  39 C39           -0.0368     4.1016     0.2892 C.2     
  40 C40           -1.3233     4.8861     0.2740 C.3     
  41 O41            0.4606     3.7771     1.3414 O.2     
  42 C42            8.1970     2.9224     0.1766 C.2     
  43 C43            9.1368     3.9286    -0.4361 C.3     
  44 O44            8.6341     2.0187     0.8490 O.2     
  45 H45           -0.2026     1.4561    -1.1526 H       
  46 H46            0.3450    -0.9090     0.5250 H       
  47 H47            4.3127     1.3887    -1.6562 H       
  48 H48            4.9094     4.3723     0.1635 H       
  49 H49            2.6135     4.0097     1.0215 H       
  50 H50            2.6682     5.0643    -0.4071 H       
  51 H51            0.3020    -1.8798    -1.6578 H       
  52 H52            2.2973    -2.5493    -0.6519 H       
  53 H53            3.5577    -1.6557    -1.5358 H       
  54 H54            3.6573    -1.8185     0.2339 H       
  55 H55            1.5939     2.4128    -2.7984 H       
  56 H56            2.6510     3.8361    -2.6400 H       
  57 H57            3.2454     2.2282    -2.1609 H       
  58 H58            5.9490     4.1219    -4.0264 H       
  59 H59            4.2456     4.5442    -4.3238 H       
  60 H60            3.9921     2.8685     2.1290 H       
  61 H61            4.7682     6.9347    -3.9226 H       
  62 H62            6.4716     6.5124    -3.6252 H       
  63 H63            4.9414     6.0158    -6.2192 H       
  64 H64            6.1436     7.3012    -5.9531 H       
  65 H65            6.6448     5.5935    -5.9218 H       
  66 H66           -2.5163     0.8072     2.7375 H       
  67 H67           -2.5626     2.5431     2.3464 H       
  68 H68           -4.4073     2.1322     0.7412 H       
  69 H69           -4.3610     0.3964     1.1323 H       
  70 H70           -4.8938     0.9152     3.4978 H       
  71 H71           -4.9401     2.6510     3.1067 H       
  72 H72           -6.7848     2.2402     1.5015 H       
  73 H73           -6.7386     0.5043     1.8926 H       
  74 H74           -7.2714     1.0231     4.2581 H       
  75 H75           -7.3177     2.7589     3.8670 H       
  76 H76           -9.1624     2.3481     2.2617 H       
  77 H77           -9.1161     0.6122     2.6529 H       
  78 H78           -9.6489     1.1310     5.0184 H       
  79 H79           -9.6952     2.8669     4.6272 H       
  80 H80          -10.9044     1.7643     3.9270 H       
  81 H81            5.6444     1.2039     2.5497 H       
  82 H82            7.3026     1.8087     2.3197 H       
  83 H83            5.9592     2.9558     2.5376 H       
  84 H84           -2.0876     4.3203    -0.2587 H       
  85 H85           -1.6516     5.0655     1.2978 H       
  86 H86           -1.1614     5.8399    -0.2280 H       
  87 H87            9.2833     4.7575     0.2564 H       
  88 H88           10.0957     3.4524    -0.6408 H       
  89 H89            8.7112     4.3035    -1.3669 H       
@<TRIPOS>BOND
   1    1    2 1
   2    1    5 1
   3    1   13 1
   4    1   45 1
   5    2    3 1
   6    2   11 1
   7    2   46 1
   8    3    4 2
   9    3   12 1
  10    4    5 1
  11    4    6 1
  12    5   10 1
  13    5   14 1
  14    6    7 1
  15    6   21 1
  16    6   47 1
  17    7   23 1
  18    7   24 1
  19    7    8 1
  20    8    9 1
  21    8   17 1
  22    8   48 1
  23    9   10 1
  24    9   49 1
  25    9   50 1
  26   10   15 1
  27   10   16 1
  28   11   51 1
  29   12   52 1
  30   12   53 1
  31   12   54 1
  32   13   27 1
  33   15   39 1
  34   16   55 1
  35   16   56 1
  36   16   57 1
  37   17   18 1
  38   18   19 1
  39   18   20 2
  40   19   25 1
  41   19   58 1
  42   19   59 1
  43   21   22 1
  44   22   23 1
  45   22   34 2
  46   23   35 1
  47   23   38 1
  48   24   60 1
  49   25   26 1
  50   25   61 1
  51   25   62 1
  52   26   63 1
  53   26   64 1
  54   26   65 1
  55   27   28 1
  56   27   33 2
  57   28   29 1
  58   28   66 1
  59   28   67 1
  60   29   30 1
  61   29   68 1
  62   29   69 1
  63   30   31 1
  64   30   70 1
  65   30   71 1
  66   31   32 1
  67   31   72 1
  68   31   73 1
  69   32   36 1
  70   32   74 1
  71   32   75 1
  72   35   42 1
  73   36   37 1
  74   36   76 1
  75   36   77 1
  76   37   78 1
  77   37   79 1
  78   37   80 1
  79   38   81 1
  80   38   82 1
  81   38   83 1
  82   39   40 1
  83   39   41 2
  84   40   84 1
  85   40   85 1
  86   40   86 1
  87   42   43 1
  88   42   44 2
  89   43   87 1
  90   43   88 1
  91   43   89 1

#	End of record

