#	Name: ASD01814170
#	Creating user name:	WinNT
#	Creation time:	15. 06. 2019 19:31

#	Modifying user name:	WinNT
#	Modification time:	15. 06. 2019 19:31

#	Program:	/corina/corina34_cracker 3.40 0067  02.08.2006

@<TRIPOS>MOLECULE
ASD01814170
  40   43    0    0    0
SMALL
NO_CHARGES


@<TRIPOS>ATOM
   1 C1            -0.0167     1.3820     0.0096 C.ar    
   2 C2             0.0021    -0.0041     0.0020 C.ar    
   3 C3             1.1959    -0.6932    -0.0130 C.ar    
   4 C4             2.4016     0.0019    -0.0208 C.ar    
   5 C5             2.3831     1.4075    -0.0131 C.ar    
   6 C6             1.1665     2.0939     0.0022 C.ar    
   7 N7             3.6010    -0.6771    -0.0354 N.pl3   
   8 C8             4.7870    -0.0549    -0.0424 C.2     
   9 C9             4.8957     1.3208    -0.0361 C.2     
  10 C10            3.6667     2.1313    -0.0214 C.2     
  11 C11            6.2161     1.9660    -0.0437 C.2     
  12 O12            6.3092     3.3109    -0.0374 O.3     
  13 O13            7.2243     1.2870    -0.0558 O.2     
  14 O14            3.7090     3.3491    -0.0157 O.2     
  15 F15            1.1476     3.4448     0.0096 F       
  16 C16            3.5775    -2.1419    -0.0430 C.3     
  17 C17            3.5565    -2.6366    -1.4663 C.ar    
  18 C18            4.7593    -2.8813    -2.1256 C.ar    
  19 C19            4.7755    -3.3289    -3.4110 C.ar    
  20 C20            3.5629    -3.5486    -4.0861 C.ar    
  21 C21            2.3391    -3.2997    -3.4152 C.ar    
  22 C22            2.3625    -2.8431    -2.0867 C.ar    
  23 C23            3.5401    -4.0097    -5.4132 C.ar    
  24 C24            2.3448    -4.2111    -6.0364 C.ar    
  25 C25            1.1402    -3.9654    -5.3750 C.ar    
  26 C26            1.1256    -3.5189    -4.0900 C.ar    
  27 F27            2.3254    -4.6545    -7.3124 F       
  28 H28           -0.9604     1.9071     0.0169 H       
  29 H29           -0.9295    -0.5505     0.0083 H       
  30 H30            1.1956    -1.7731    -0.0185 H       
  31 H31            5.6884    -0.6497    -0.0531 H       
  32 H32            7.1990     3.6894    -0.0429 H       
  33 H33            4.4662    -2.5222     0.4608 H       
  34 H34            2.6865    -2.4937     0.4772 H       
  35 H35            5.6928    -2.7129    -1.6092 H       
  36 H36            5.7155    -3.5139    -3.9096 H       
  37 H37            1.4381    -2.6493    -1.5631 H       
  38 H38            4.4647    -4.2031    -5.9367 H       
  39 H39            0.2062    -4.1325    -5.8908 H       
  40 H40            0.1861    -3.3334    -3.5907 H       
@<TRIPOS>BOND
   1    1    2 ar
   2    1    6 ar
   3    1   28 1
   4    2    3 ar
   5    2   29 1
   6    3    4 ar
   7    3   30 1
   8    4    5 ar
   9    4    7 1
  10    5    6 ar
  11    5   10 1
  12    6   15 1
  13    7    8 1
  14    7   16 1
  15    8    9 2
  16    8   31 1
  17    9   10 1
  18    9   11 1
  19   10   14 2
  20   11   12 1
  21   11   13 2
  22   12   32 1
  23   16   17 1
  24   16   33 1
  25   16   34 1
  26   17   18 ar
  27   17   22 ar
  28   18   19 ar
  29   18   35 1
  30   19   20 ar
  31   19   36 1
  32   20   21 ar
  33   20   23 ar
  34   21   22 ar
  35   21   26 ar
  36   22   37 1
  37   23   24 ar
  38   23   38 1
  39   24   25 ar
  40   24   27 1
  41   25   26 ar
  42   25   39 1
  43   26   40 1

#	End of record

