#	Name: ASD03540090
#	Creating user name:	WinNT
#	Creation time:	15. 06. 2019 20:42

#	Modifying user name:	WinNT
#	Modification time:	15. 06. 2019 20:42

#	Program:	/corina/corina34_cracker 3.40 0067  02.08.2006

@<TRIPOS>MOLECULE
ASD03540090
  44   46    0    0    0
SMALL
NO_CHARGES


@<TRIPOS>ATOM
   1 C1            -0.0180     1.4732     0.0101 C.2     
   2 C2             0.0021    -0.0041     0.0020 C.ar    
   3 C3             1.2173    -0.6860    -0.0132 C.ar    
   4 C4             1.2270    -2.0795    -0.0203 C.ar    
   5 C5             2.5105    -2.8109    -0.0360 C.2     
   6 C6             0.0198    -2.7834    -0.0121 C.ar    
   7 C7            -1.1806    -2.1014     0.0026 C.ar    
   8 C8            -1.1975    -0.7208     0.0155 C.ar    
   9 O9             1.0256     2.0948     0.0035 O.2     
  10 O10           -1.1936     2.1308     0.0193 O.3     
  11 O11            3.5590    -2.1976    -0.0428 O.2     
  12 O12            2.5181    -4.1579    -0.0429 O.3     
  13 C13           -1.1373     3.5817     0.0269 C.3     
  14 C14           -2.5375     4.1387     0.0366 C.ar    
  15 C15           -3.1741     4.3877     1.2381 C.ar    
  16 C16           -4.4585     4.8986     1.2470 C.ar    
  17 C17           -5.1062     5.1609     0.0543 C.ar    
  18 C18           -4.4694     4.9128    -1.1472 C.ar    
  19 C19           -3.1833     4.4060    -1.1561 C.ar    
  20 C20            3.8155    -4.8098    -0.0583 C.3     
  21 C21            3.6264    -6.3049    -0.0640 C.ar    
  22 C22            3.5285    -6.9846    -1.2637 C.ar    
  23 C23            3.3551    -8.3560    -1.2690 C.ar    
  24 C24            3.2800    -9.0477    -0.0746 C.ar    
  25 C25            3.3788    -8.3682     1.1251 C.ar    
  26 C26            3.5566    -6.9973     1.1304 C.ar    
  27 H27            2.1473    -0.1370    -0.0199 H       
  28 H28            0.0259    -3.8634    -0.0176 H       
  29 H29           -2.1106    -2.6504     0.0085 H       
  30 H30           -2.1399    -0.1936     0.0318 H       
  31 H31           -0.6055     3.9200     0.9162 H       
  32 H32           -0.6140     3.9297    -0.8637 H       
  33 H33           -2.6680     4.1827     2.1700 H       
  34 H34           -4.9561     5.0924     2.1857 H       
  35 H35           -6.1100     5.5594     0.0612 H       
  36 H36           -4.9755     5.1175    -2.0791 H       
  37 H37           -2.6843     4.2156    -2.0948 H       
  38 H38            4.3625    -4.5093    -0.9519 H       
  39 H39            4.3791    -4.5182     0.8279 H       
  40 H40            3.5872    -6.4441    -2.1969 H       
  41 H41            3.2779    -8.8869    -2.2063 H       
  42 H42            3.1437   -10.1191    -0.0787 H       
  43 H43            3.3198    -8.9086     2.0583 H       
  44 H44            3.6375    -6.4668     2.0676 H       
@<TRIPOS>BOND
   1    1    2 1
   2    1    9 2
   3    1   10 1
   4    2    3 ar
   5    2    8 ar
   6    3    4 ar
   7    3   27 1
   8    4    5 1
   9    4    6 ar
  10    5   11 2
  11    5   12 1
  12    6    7 ar
  13    6   28 1
  14    7    8 ar
  15    7   29 1
  16    8   30 1
  17   10   13 1
  18   12   20 1
  19   13   14 1
  20   13   31 1
  21   13   32 1
  22   14   15 ar
  23   14   19 ar
  24   15   16 ar
  25   15   33 1
  26   16   17 ar
  27   16   34 1
  28   17   18 ar
  29   17   35 1
  30   18   19 ar
  31   18   36 1
  32   19   37 1
  33   20   21 1
  34   20   38 1
  35   20   39 1
  36   21   22 ar
  37   21   26 ar
  38   22   23 ar
  39   22   40 1
  40   23   24 ar
  41   23   41 1
  42   24   25 ar
  43   24   42 1
  44   25   26 ar
  45   25   43 1
  46   26   44 1

#	End of record

