#	Name: ASD06150006
#	Creating user name:	WinNT
#	Creation time:	15. 06. 2019 21:05

#	Modifying user name:	WinNT
#	Modification time:	15. 06. 2019 21:05

#	Program:	/corina/corina34_cracker 3.40 0067  02.08.2006

@<TRIPOS>MOLECULE
ASD06150006
  43   45    0    0    0
SMALL
NO_CHARGES


@<TRIPOS>ATOM
   1 O1             0.0014    -0.0037     0.0053 O.2     
   2 C2            -0.0146     1.2113     0.0142 C.2     
   3 N3             1.1435     1.9006     0.0013 N.am    
   4 C4             2.3635     1.2208     0.0917 C.ar    
   5 C5             3.4753     1.6927    -0.5935 C.ar    
   6 C6             4.6779     1.0195    -0.5023 C.ar    
   7 C7             4.7753    -0.1234     0.2699 C.ar    
   8 C8             3.6700    -0.5959     0.9534 C.ar    
   9 C9             2.4662     0.0762     0.8712 C.ar    
  10 O10           -1.1894     1.8690     0.0312 O.3     
  11 C11           -2.3965     1.0622     0.0381 C.3     
  12 C12           -3.6036     1.9642     0.0573 C.2     
  13 C13           -4.2443     2.4423    -1.0273 C.2     
  14 C14           -5.3095     3.2380    -0.5601 C.2     
  15 C15           -5.2594     3.2012     0.7980 C.2     
  16 O16           -4.2228     2.4204     1.1583 O.3     
  17 C17           -6.1853     3.8930     1.7191 C.ar    
  18 C18           -6.0216     3.7712     3.1000 C.ar    
  19 C19           -6.8891     4.4200     3.9542 C.ar    
  20 C20           -7.9196     5.1901     3.4449 C.ar    
  21 C21           -8.0875     5.3150     2.0773 C.ar    
  22 C22           -7.2239     4.6757     1.2119 C.ar    
  23 C23           -9.2131     6.1554     1.5316 C.3     
  24 F24           -9.9438     6.7016     2.5923 F       
  25 F25           -8.6867     7.1877     0.7477 F       
  26 F26          -10.0538     5.3573     0.7484 F       
  27 C27           -6.7142     4.2893     5.4453 C.3     
  28 F28           -5.8701     5.3052     5.9066 F       
  29 F29           -7.9601     4.3976     6.0722 F       
  30 F30           -6.1499     3.0438     5.7412 F       
  31 H31            1.1314     2.8679    -0.0705 H       
  32 H32            3.3997     2.5849    -1.1973 H       
  33 H33            5.5430     1.3860    -1.0350 H       
  34 H34            5.7166    -0.6484     0.3390 H       
  35 H35            3.7492    -1.4888     1.5556 H       
  36 H36            1.6033    -0.2930     1.4056 H       
  37 H37           -2.4225     0.4395    -0.8561 H       
  38 H38           -2.4038     0.4267     0.9237 H       
  39 H39           -3.9897     2.2518    -2.0594 H       
  40 H40           -6.0266     3.7740    -1.1641 H       
  41 H41           -5.2178     3.1701     3.4988 H       
  42 H42           -8.5962     5.6956     4.1180 H       
  43 H43           -7.3561     4.7740     0.1446 H       
@<TRIPOS>BOND
   1    1    2 2
   2    2    3 am
   3    2   10 1
   4    3    4 1
   5    3   31 1
   6    4    5 ar
   7    4    9 ar
   8    5    6 ar
   9    5   32 1
  10    6    7 ar
  11    6   33 1
  12    7    8 ar
  13    7   34 1
  14    8    9 ar
  15    8   35 1
  16    9   36 1
  17   10   11 1
  18   11   12 1
  19   11   37 1
  20   11   38 1
  21   12   13 2
  22   12   16 1
  23   13   14 1
  24   13   39 1
  25   14   15 2
  26   14   40 1
  27   15   16 1
  28   15   17 1
  29   17   18 ar
  30   17   22 ar
  31   18   19 ar
  32   18   41 1
  33   19   20 ar
  34   19   27 1
  35   20   21 ar
  36   20   42 1
  37   21   22 ar
  38   21   23 1
  39   22   43 1
  40   23   24 1
  41   23   25 1
  42   23   26 1
  43   27   28 1
  44   27   29 1
  45   27   30 1

#	End of record

