#	Name: ASD01870260
#	Creating user name:	WinNT
#	Creation time:	15. 06. 2019 19:38

#	Modifying user name:	WinNT
#	Modification time:	15. 06. 2019 19:38

#	Program:	/corina/corina34_cracker 3.40 0067  02.08.2006

@<TRIPOS>MOLECULE
ASD01870260
  63   67    0    0    0
SMALL
NO_CHARGES


@<TRIPOS>ATOM
   1 C1            -0.0395     1.2104    -1.0196 C.ar    
   2 C2             0.0323    -0.1768    -0.9192 C.ar    
   3 C3             1.1862    -0.7959    -0.5403 C.ar    
   4 C4             2.3201    -0.0266    -0.2468 C.ar    
   5 C5             2.2468     1.3889    -0.3498 C.ar    
   6 C6             1.0426     1.9910    -0.7421 C.ar    
   7 C7             3.5376    -0.6110     0.1486 C.ar    
   8 N8             4.5770     0.1358     0.4151 N.ar    
   9 C9             4.5522     1.4731     0.3311 C.ar    
  10 C10            3.3959     2.1321    -0.0508 C.ar    
  11 C11            5.5978     2.4884     0.5837 C.2     
  12 N12            5.1127     3.7229     0.3682 N.am    
  13 C13            3.7088     3.6058    -0.0427 C.3     
  14 C14            5.8591     4.9744     0.5191 C.3     
  15 C15            6.3492     5.1051     1.9626 C.3     
  16 C16            7.2608     3.9238     2.3006 C.3     
  17 C17            8.4618     3.9188     1.3527 C.3     
  18 C18            7.9717     3.7881    -0.0908 C.3     
  19 C19            7.0601     4.9695    -0.4288 C.3     
  20 C20            3.6441    -2.1097     0.2662 C.3     
  21 C21            4.0838    -2.6872    -1.0545 C.ar    
  22 C22            5.4269    -2.8481    -1.3347 C.ar    
  23 N23            5.8201    -3.3528    -2.4882 N.ar    
  24 C24            4.9558    -3.7223    -3.4142 C.ar    
  25 C25            3.5943    -3.5906    -3.2037 C.ar    
  26 C26            3.1447    -3.0690    -2.0012 C.ar    
  27 O27            6.7345     2.2411     0.9360 O.2     
  28 O28            5.2275     5.1097     2.8479 O.3     
  29 C29            3.5198     4.1916    -1.4434 C.3     
  30 Cl30           5.5329    -4.3803    -4.9135 Cl      
  31 C31            3.7660     5.7011    -1.4023 C.3     
  32 C32            3.4202     6.3114    -2.7621 C.3     
  33 C33            3.6664     7.8209    -2.7210 C.3     
  34 F34            5.0123     8.0661    -2.4286 F       
  35 F35            3.3502     8.3790    -3.9643 F       
  36 F36            2.8618     8.3979    -1.7327 F       
  37 H37           -0.9654     1.6742    -1.3262 H       
  38 H38           -0.8404    -0.7717    -1.1449 H       
  39 H39            1.2262    -1.8727    -0.4663 H       
  40 H40            0.9735     3.0657    -0.8246 H       
  41 H41            3.0653     4.1217     0.6700 H       
  42 H42            5.2096     5.8161     0.2783 H       
  43 H43            6.9045     6.0363     2.0748 H       
  44 H44            7.6100     4.0169     3.3289 H       
  45 H45            6.7055     2.9926     2.1883 H       
  46 H46            9.0171     4.8500     1.4649 H       
  47 H47            9.1113     3.0772     1.5934 H       
  48 H48            8.8273     3.7846    -0.7661 H       
  49 H49            7.4164     2.8569    -0.2031 H       
  50 H50            6.7109     4.8764    -1.4572 H       
  51 H51            7.6154     5.9007    -0.3165 H       
  52 H52            4.3745    -2.3629     1.0346 H       
  53 H53            2.6727    -2.5227     0.5380 H       
  54 H54            6.1638    -2.5569    -0.6008 H       
  55 H55            2.8913    -3.8939    -3.9653 H       
  56 H56            2.0881    -2.9550    -1.8089 H       
  57 H57            5.4641     5.1900     3.7821 H       
  58 H58            4.2272     3.7267    -2.1301 H       
  59 H59            2.5025     3.9985    -1.7838 H       
  60 H60            3.1391     6.1507    -0.6323 H       
  61 H61            4.8147     5.8922    -1.1745 H       
  62 H62            4.0471     5.8618    -3.5321 H       
  63 H63            2.3715     6.1204    -2.9899 H       
@<TRIPOS>BOND
   1    1    2 ar
   2    1    6 ar
   3    1   37 1
   4    2    3 ar
   5    2   38 1
   6    3    4 ar
   7    3   39 1
   8    4    5 ar
   9    4    7 ar
  10    5    6 ar
  11    5   10 ar
  12    6   40 1
  13    7    8 ar
  14    7   20 1
  15    8    9 ar
  16    9   10 ar
  17    9   11 1
  18   10   13 1
  19   11   12 am
  20   11   27 2
  21   12   13 1
  22   12   14 1
  23   13   29 1
  24   13   41 1
  25   14   15 1
  26   14   19 1
  27   14   42 1
  28   15   16 1
  29   15   28 1
  30   15   43 1
  31   16   17 1
  32   16   44 1
  33   16   45 1
  34   17   18 1
  35   17   46 1
  36   17   47 1
  37   18   19 1
  38   18   48 1
  39   18   49 1
  40   19   50 1
  41   19   51 1
  42   20   21 1
  43   20   52 1
  44   20   53 1
  45   21   22 ar
  46   21   26 ar
  47   22   23 ar
  48   22   54 1
  49   23   24 ar
  50   24   25 ar
  51   24   30 1
  52   25   26 ar
  53   25   55 1
  54   26   56 1
  55   28   57 1
  56   29   31 1
  57   29   58 1
  58   29   59 1
  59   31   32 1
  60   31   60 1
  61   31   61 1
  62   32   33 1
  63   32   62 1
  64   32   63 1
  65   33   34 1
  66   33   35 1
  67   33   36 1

#	End of record

