#	Name: ASD01208437
#	Creating user name:	WinNT
#	Creation time:	15. 06. 2019 19:09

#	Modifying user name:	WinNT
#	Modification time:	15. 06. 2019 19:09

#	Program:	/corina/corina34_cracker 3.40 0067  02.08.2006

@<TRIPOS>MOLECULE
ASD01208437
  16   16    0    0    0
SMALL
NO_CHARGES


@<TRIPOS>ATOM
   1 C1            -0.0187     1.5258     0.0104 C.3     
   2 C2             0.0021    -0.0041     0.0020 C.3     
   3 O3             1.3220     2.0204     0.0003 O.3     
   4 O4             0.5895    -0.4792     1.2150 O.3     
   5 S5            -2.3364     3.1843    -2.7825 S.3     
   6 C6            -1.1103     2.1664    -3.4022 C.2     
   7 N7            -0.4101     1.6739    -2.4356 N.2     
   8 C8            -0.7475     2.0250    -1.2105 C.2     
   9 C9            -1.7889     2.8588    -1.1398 C.2     
  10 Br10          -0.8219     1.8126    -5.2373 Br      
  11 H11           -0.5289     1.8773     0.9072 H       
  12 H12           -1.0175    -0.3808    -0.0798 H       
  13 H13            0.5883    -0.3548    -0.8473 H       
  14 H14            1.8365     1.7462    -0.7712 H       
  15 H15            0.6355    -1.4430     1.2786 H       
  16 H16           -2.2190     3.2626    -0.2351 H       
@<TRIPOS>BOND
   1    1    2 1
   2    1    3 1
   3    1    8 1
   4    1   11 1
   5    2    4 1
   6    2   12 1
   7    2   13 1
   8    3   14 1
   9    4   15 1
  10    5    6 1
  11    5    9 1
  12    6    7 2
  13    6   10 1
  14    7    8 1
  15    8    9 2
  16    9   16 1

#	End of record

