#	Name: ASD01510038
#	Creating user name:	WinNT
#	Creation time:	15. 06. 2019 19:21

#	Modifying user name:	WinNT
#	Modification time:	15. 06. 2019 19:21

#	Program:	/corina/corina34_cracker 3.40 0067  02.08.2006

@<TRIPOS>MOLECULE
ASD01510038
  56   58    0    0    0
SMALL
NO_CHARGES


@<TRIPOS>ATOM
   1 C1             0.0065     1.5057     0.0126 C.3     
   2 C2             0.0233    -0.0242     0.0003 C.3     
   3 O3             0.6876    -0.4838    -1.1785 O.3     
   4 C4             0.7892    -1.8261    -1.3444 C.ar    
   5 N5             0.2860    -2.6569    -0.4377 N.ar    
   6 C6             0.3810    -3.9687    -0.5920 C.ar    
   7 N7             0.9761    -4.5064    -1.6457 N.ar    
   8 C8             1.5037    -3.7404    -2.5948 C.ar    
   9 C9             1.4185    -2.3536    -2.4718 C.ar    
  10 S10            2.1020    -1.2944    -3.7029 S.3     
  11 C11            0.7100    -1.1276    -4.7702 C.ar    
  12 N12           -0.4170    -1.7536    -4.4636 N.ar    
  13 C13           -1.4881    -1.6503    -5.2463 C.ar    
  14 N14           -2.6635    -2.3078    -4.9187 N.pl3   
  15 C15           -1.4126    -0.8723    -6.3990 C.ar    
  16 C16           -0.2126    -0.2303    -6.6875 C.ar    
  17 N17            0.8156    -0.3749    -5.8559 N.ar    
  18 N18           -0.0911     0.5561    -7.8272 N.am    
  19 C19            1.0393     1.2569    -8.0451 C.2     
  20 O20            1.9148     1.2763    -7.2013 O.2     
  21 C21            1.2140     1.9979    -9.3030 C.2     
  22 C22            2.3298     2.6896    -9.5181 C.2     
  23 O23            2.1114    -4.2993    -3.6708 O.3     
  24 C24            2.1513    -5.7267    -3.7246 C.3     
  25 C25            2.8705    -6.1691    -5.0005 C.3     
  26 N26           -0.1570    -4.8021     0.3765 N.3     
  27 C27            0.0477    -6.2156     0.0280 C.3     
  28 C28           -0.5068    -7.0976     1.1498 C.3     
  29 O29           -1.8870    -6.7853     1.3569 O.3     
  30 C30           -2.1227    -5.4167     1.6986 C.3     
  31 C31           -1.5846    -4.5177     0.5823 C.3     
  32 H32            1.0301     1.8803     0.0029 H       
  33 H33           -0.5223     1.8703    -0.8680 H       
  34 H34           -0.5001     1.8562     0.9118 H       
  35 H35            0.5521    -0.3889     0.8809 H       
  36 H36           -1.0002    -0.3989     0.0100 H       
  37 H37           -2.7091    -2.8478    -4.1141 H       
  38 H38           -3.4404    -2.2280    -5.4939 H       
  39 H39           -2.2654    -0.7700    -7.0536 H       
  40 H40           -0.8200     0.6005    -8.4657 H       
  41 H41            0.4365     1.9807   -10.0524 H       
  42 H42            3.1073     2.7069    -8.7687 H       
  43 H43            2.4581     3.2339   -10.4420 H       
  44 H44            2.6864    -6.1083    -2.8550 H       
  45 H45            1.1343    -6.1188    -3.7262 H       
  46 H46            2.3354    -5.7876    -5.8701 H       
  47 H47            3.8875    -5.7770    -4.9988 H       
  48 H48            2.9009    -7.2579    -5.0415 H       
  49 H49           -0.4733    -6.4401    -0.9027 H       
  50 H50            1.1132    -6.4096    -0.0946 H       
  51 H51           -0.4089    -8.1465     0.8702 H       
  52 H52            0.0502    -6.9115     2.0681 H       
  53 H53           -3.1935    -5.2501     1.8158 H       
  54 H54           -1.6127    -5.1818     2.6328 H       
  55 H55           -1.7105    -3.4724     0.8643 H       
  56 H56           -2.1316    -4.7151    -0.3396 H       
@<TRIPOS>BOND
   1    1    2 1
   2    1   32 1
   3    1   33 1
   4    1   34 1
   5    2    3 1
   6    2   35 1
   7    2   36 1
   8    3    4 1
   9    4    5 ar
  10    4    9 ar
  11    5    6 ar
  12    6    7 ar
  13    6   26 1
  14    7    8 ar
  15    8    9 ar
  16    8   23 1
  17    9   10 1
  18   10   11 1
  19   11   12 ar
  20   11   17 ar
  21   12   13 ar
  22   13   14 1
  23   13   15 ar
  24   14   37 1
  25   14   38 1
  26   15   16 ar
  27   15   39 1
  28   16   17 ar
  29   16   18 1
  30   18   19 am
  31   18   40 1
  32   19   20 2
  33   19   21 1
  34   21   22 2
  35   21   41 1
  36   22   42 1
  37   22   43 1
  38   23   24 1
  39   24   25 1
  40   24   44 1
  41   24   45 1
  42   25   46 1
  43   25   47 1
  44   25   48 1
  45   26   27 1
  46   26   31 1
  47   27   28 1
  48   27   49 1
  49   27   50 1
  50   28   29 1
  51   28   51 1
  52   28   52 1
  53   29   30 1
  54   30   31 1
  55   30   53 1
  56   30   54 1
  57   31   55 1
  58   31   56 1

#	End of record

