#	Name: ASD02039456
#	Creating user name:	WinNT
#	Creation time:	15. 06. 2019 20:18

#	Modifying user name:	WinNT
#	Modification time:	15. 06. 2019 20:18

#	Program:	/corina/corina34_cracker 3.40 0067  02.08.2006

@<TRIPOS>MOLECULE
ASD02039456
  52   54    0    0    0
SMALL
NO_CHARGES


@<TRIPOS>ATOM
   1 C1             0.3207     1.3099     0.3249 C.ar    
   2 C2             0.4989    -0.0639     0.4063 C.ar    
   3 C3             1.4915     2.2250     0.0745 C.3     
   4 N4             1.6639     2.4140    -1.3680 N.am    
   5 C5             1.0295     3.4238    -1.9959 C.2     
   6 C6             1.2801     3.6754    -3.4257 C.2     
   7 C7             0.6332     4.5851    -4.2099 C.2     
   8 N8             2.2010     3.0484    -4.2014 N.2     
   9 C9             2.1344     3.5320    -5.4081 C.2     
  10 N10            1.1707     4.4886    -5.4486 N.pl3   
  11 O11            0.2500     4.1274    -1.3821 O.2     
  12 C12            0.7823     5.2744    -6.6225 C.3     
  13 C13            2.5259     1.5054    -2.1279 C.3     
  14 C14           -0.5953    -0.8773     0.6365 C.ar    
  15 C15           -2.0154     0.9419     0.6976 C.ar    
  16 C16           -0.9573     1.8204     0.4730 C.ar    
  17 C17           -3.3905     1.4728     0.8579 C.ar    
  18 C18           -4.4544     0.6002     1.0829 C.ar    
  19 C19           -5.7318     1.0969     1.2320 C.ar    
  20 C20           -5.9595     2.4647     1.1579 C.ar    
  21 C21           -4.9020     3.3363     0.9339 C.ar    
  22 C22           -3.6215     2.8461     0.7897 C.ar    
  23 N23           -1.8009    -0.3652     0.7785 N.ar    
  24 C24            1.6720     0.4104    -2.7704 C.3     
  25 O25           -7.2194     2.9511     1.3043 O.3     
  26 O26            0.7949     0.9949    -3.7353 O.3     
  27 C27           -0.0513     0.0529    -4.3975 C.3     
  28 C28           -7.3821     4.3681     1.2168 C.3     
  29 F29           -6.9521     4.8102    -0.0389 F       
  30 F30           -8.7316     4.6941     1.3890 F       
  31 F31           -6.6218     4.9873     2.2147 F       
  32 H32            1.4829    -0.4937     0.2906 H       
  33 H33            1.3066     3.1893     0.5478 H       
  34 H34            2.3950     1.7820     0.4935 H       
  35 H35           -0.1568     5.2539    -3.9016 H       
  36 H36            2.7483     3.2245    -6.2418 H       
  37 H37           -0.0114     4.7558    -7.1604 H       
  38 H38            0.4249     6.2532    -6.3026 H       
  39 H39            1.6442     5.3987    -7.2780 H       
  40 H40            3.0461     2.0639    -2.9061 H       
  41 H41            3.2554     1.0509    -1.4576 H       
  42 H42           -0.4599    -1.9468     0.7004 H       
  43 H43           -1.1330     2.8840     0.4077 H       
  44 H44           -4.2780    -0.4638     1.1399 H       
  45 H45           -6.5563     0.4215     1.4063 H       
  46 H46           -5.0822     4.3997     0.8768 H       
  47 H47           -2.7994     3.5245     0.6155 H       
  48 H48            2.3206    -0.3151    -3.2614 H       
  49 H49            1.0840    -0.0901    -2.0010 H       
  50 H50           -0.6860     0.5751    -5.1135 H       
  51 H51            0.5616    -0.6800    -4.9223 H       
  52 H52           -0.6751    -0.4551    -3.6619 H       
@<TRIPOS>BOND
   1    1    2 ar
   2    1    3 1
   3    1   16 ar
   4    2   14 ar
   5    2   32 1
   6    3    4 1
   7    3   33 1
   8    3   34 1
   9    4    5 am
  10    4   13 1
  11    5    6 1
  12    5   11 2
  13    6    7 2
  14    6    8 1
  15    7   10 1
  16    7   35 1
  17    8    9 2
  18    9   10 1
  19    9   36 1
  20   10   12 1
  21   12   37 1
  22   12   38 1
  23   12   39 1
  24   13   24 1
  25   13   40 1
  26   13   41 1
  27   14   23 ar
  28   14   42 1
  29   15   16 ar
  30   15   17 1
  31   15   23 ar
  32   16   43 1
  33   17   18 ar
  34   17   22 ar
  35   18   19 ar
  36   18   44 1
  37   19   20 ar
  38   19   45 1
  39   20   21 ar
  40   20   25 1
  41   21   22 ar
  42   21   46 1
  43   22   47 1
  44   24   26 1
  45   24   48 1
  46   24   49 1
  47   25   28 1
  48   26   27 1
  49   27   50 1
  50   27   51 1
  51   27   52 1
  52   28   29 1
  53   28   30 1
  54   28   31 1

#	End of record

