#	Name: ASD01190187
#	Creating user name:	WinNT
#	Creation time:	15. 06. 2019 19:07

#	Modifying user name:	WinNT
#	Modification time:	15. 06. 2019 19:07

#	Program:	/corina/corina34_cracker 3.40 0067  02.08.2006

@<TRIPOS>MOLECULE
ASD01190187
  52   56    0    0    0
SMALL
NO_CHARGES


@<TRIPOS>ATOM
   1 C1            -0.9555    -1.2736     0.1756 C.2     
   2 C2             0.2052    -0.4959     0.7405 C.3     
   3 O3            -0.8911    -1.7285    -0.9419 O.2     
   4 O4            -2.0587    -1.4655     0.9158 O.3     
   5 N5             1.2804    -0.4330    -0.2525 N.pl3   
   6 C6             2.3445    -1.2910    -0.3143 C.2     
   7 C7             3.1432    -0.9563    -1.3400 C.2     
   8 C8             2.5414     0.2115    -1.9880 C.ar    
   9 C9             2.8933     1.0023    -3.0836 C.ar    
  10 C10            2.0975     2.0522    -3.4458 C.ar    
  11 C11            0.9412     2.3394    -2.7331 C.ar    
  12 C12            0.5756     1.5725    -1.6488 C.ar    
  13 C13            1.3677     0.4947    -1.2661 C.ar    
  14 C14            4.4173    -1.6503    -1.7476 C.3     
  15 C15            4.7008    -2.8037    -0.7830 C.3     
  16 O16            4.2774    -2.1624    -3.0743 O.3     
  17 N17            8.7463     1.9359    -1.8376 N.pl3   
  18 N18            9.2352     1.6518    -3.1170 N.2     
  19 C19            8.5047     0.7323    -3.6814 C.2     
  20 C20            7.4521     0.3588    -2.7420 C.ar    
  21 C21            6.3914    -0.5531    -2.7819 C.ar    
  22 C22            5.5597    -0.6684    -1.7060 C.ar    
  23 C23            5.7559     0.1115    -0.5728 C.ar    
  24 C24            6.7841     1.0089    -0.5104 C.ar    
  25 C25            7.6491     1.1481    -1.5923 C.ar    
  26 C26            9.2921     2.8698    -0.9474 C.ar    
  27 C27           10.6661     3.0661    -0.9017 C.ar    
  28 C28           11.2021     3.9872    -0.0234 C.ar    
  29 C29           10.3705     4.7148     0.8114 C.ar    
  30 C30            9.0000     4.5205     0.7673 C.ar    
  31 C31            8.4595     3.6046    -0.1136 C.ar    
  32 F32           10.8969     5.6151     1.6702 F       
  33 F33            3.6403    -3.7153    -0.8216 F       
  34 F34            5.8836    -3.4480    -1.1614 F       
  35 F35            4.8378    -2.3024     0.5159 F       
  36 H36           -0.1205     0.5145     0.9880 H       
  37 H37            0.5703    -0.9906     1.6406 H       
  38 H38           -2.7769    -1.9705     0.5106 H       
  39 H39            2.5165    -2.1152     0.3621 H       
  40 H40            3.7915     0.7851    -3.6426 H       
  41 H41            2.3703     2.6638    -4.2931 H       
  42 H42            0.3224     3.1727    -3.0316 H       
  43 H43           -0.3257     1.8042    -1.1006 H       
  44 H44            4.0958    -1.4851    -3.7402 H       
  45 H45            8.6518     0.3201    -4.6688 H       
  46 H46            6.2318    -1.1622    -3.6594 H       
  47 H47            5.0872     0.0072     0.2689 H       
  48 H48            6.9254     1.6093     0.3762 H       
  49 H49           11.3150     2.4987    -1.5522 H       
  50 H50           12.2707     4.1400     0.0128 H       
  51 H51            8.3532     5.0887     1.4194 H       
  52 H52            7.3903     3.4568    -0.1510 H       
@<TRIPOS>BOND
   1    1    2 1
   2    1    3 2
   3    1    4 1
   4    2    5 1
   5    2   36 1
   6    2   37 1
   7    4   38 1
   8    5    6 1
   9    5   13 1
  10    6    7 2
  11    6   39 1
  12    7    8 1
  13    7   14 1
  14    8    9 ar
  15    8   13 ar
  16    9   10 ar
  17    9   40 1
  18   10   11 ar
  19   10   41 1
  20   11   12 ar
  21   11   42 1
  22   12   13 ar
  23   12   43 1
  24   14   15 1
  25   14   16 1
  26   14   22 1
  27   15   33 1
  28   15   34 1
  29   15   35 1
  30   16   44 1
  31   17   18 1
  32   17   25 1
  33   17   26 1
  34   18   19 2
  35   19   20 1
  36   19   45 1
  37   20   21 ar
  38   20   25 ar
  39   21   22 ar
  40   21   46 1
  41   22   23 ar
  42   23   24 ar
  43   23   47 1
  44   24   25 ar
  45   24   48 1
  46   26   27 ar
  47   26   31 ar
  48   27   28 ar
  49   27   49 1
  50   28   29 ar
  51   28   50 1
  52   29   30 ar
  53   29   32 1
  54   30   31 ar
  55   30   51 1
  56   31   52 1

#	End of record

