#	Name: ASD04030002
#	Creating user name:	WinNT
#	Creation time:	15. 06. 2019 20:48

#	Modifying user name:	WinNT
#	Modification time:	15. 06. 2019 20:48

#	Program:	/corina/corina34_cracker 3.40 0067  02.08.2006

@<TRIPOS>MOLECULE
ASD04030002
  50   52    0    0    0
SMALL
NO_CHARGES


@<TRIPOS>ATOM
   1 C1            -0.2041     1.4813     0.2829 C.ar    
   2 C2            -0.0709     0.0939     0.1892 C.ar    
   3 C3             1.1785    -0.4974     0.2553 C.ar    
   4 C4             0.9157     2.2735     0.4423 C.ar    
   5 C5             2.1754     1.6822     0.5088 C.ar    
   6 C6             2.3127     0.2891     0.4160 C.ar    
   7 O7             3.6261    -0.0099     0.5108 O.3     
   8 C8             4.3717     1.0969     0.6613 C.2     
   9 C9             3.5447     2.2085     0.6705 C.2     
  10 C10            3.9455     3.6125     0.8122 C.2     
  11 N11            4.2329     4.3450    -0.2820 N.am    
  12 C12            5.8397     1.1249     0.7955 C.ar    
  13 O13           -1.4368     2.0526     0.2115 O.3     
  14 N14           -1.2095    -0.7039     0.0278 N.am    
  15 C15           -1.5116     3.4631     0.4282 C.3     
  16 C16           -1.2261     4.1966    -0.8839 C.3     
  17 C17           -2.9123     3.8295     0.9229 C.3     
  18 C18            6.5694    -0.0670     0.7708 C.ar    
  19 C19            7.9416    -0.0345     0.8967 C.ar    
  20 C20            8.5981     1.1773     1.0477 C.ar    
  21 C21            7.8798     2.3629     1.0735 C.ar    
  22 C22            6.5078     2.3438     0.9422 C.ar    
  23 F23            9.9433     1.2029     1.1707 F       
  24 O24            4.0185     4.1159     1.9178 O.2     
  25 C25            4.6332     5.7471    -0.1405 C.3     
  26 S26           -1.2853    -2.1937     0.7469 S.o2    
  27 C27           -1.1190    -1.8494     2.5202 C.3     
  28 O28           -2.5945    -2.6598     0.4502 O.2     
  29 O29           -0.1372    -2.8759     0.2616 O.2     
  30 H30            1.2721    -1.5709     0.1824 H       
  31 H31            0.8155     3.3464     0.5146 H       
  32 H32            4.1747     3.9438    -1.1633 H       
  33 H33           -1.9542    -0.3842    -0.5052 H       
  34 H34           -0.7742     3.7555     1.1758 H       
  35 H35           -1.9635     3.9042    -1.6314 H       
  36 H36           -1.2832     5.2724    -0.7186 H       
  37 H37           -0.2283     3.9356    -1.2363 H       
  38 H38           -3.1157     3.3070     1.8577 H       
  39 H39           -2.9694     4.9054     1.0882 H       
  40 H40           -3.6497     3.5371     0.1754 H       
  41 H41            6.0590    -1.0116     0.6535 H       
  42 H42            8.5064    -0.9548     0.8781 H       
  43 H43            8.3967     3.3037     1.1921 H       
  44 H44            5.9498     3.2683     0.9576 H       
  45 H45            4.8234     6.1719    -1.1262 H       
  46 H46            3.8345     6.3054     0.3478 H       
  47 H47            5.5395     5.8072     0.4620 H       
  48 H48           -1.9332    -1.2002     2.8422 H       
  49 H49           -1.1585    -2.7854     3.0773 H       
  50 H50           -0.1653    -1.3557     2.7065 H       
@<TRIPOS>BOND
   1    1    2 ar
   2    1    4 ar
   3    1   13 1
   4    2    3 ar
   5    2   14 1
   6    3    6 ar
   7    3   30 1
   8    4    5 ar
   9    4   31 1
  10    5    6 ar
  11    5    9 1
  12    6    7 1
  13    7    8 1
  14    8    9 2
  15    8   12 1
  16    9   10 1
  17   10   11 am
  18   10   24 2
  19   11   25 1
  20   11   32 1
  21   12   18 ar
  22   12   22 ar
  23   13   15 1
  24   14   26 am
  25   14   33 1
  26   15   16 1
  27   15   17 1
  28   15   34 1
  29   16   35 1
  30   16   36 1
  31   16   37 1
  32   17   38 1
  33   17   39 1
  34   17   40 1
  35   18   19 ar
  36   18   41 1
  37   19   20 ar
  38   19   42 1
  39   20   21 ar
  40   20   23 1
  41   21   22 ar
  42   21   43 1
  43   22   44 1
  44   25   45 1
  45   25   46 1
  46   25   47 1
  47   26   27 1
  48   26   28 2
  49   26   29 2
  50   27   48 1
  51   27   49 1
  52   27   50 1

#	End of record

