#	Name: ASD02188001
#	Creating user name:	WinNT
#	Creation time:	15. 06. 2019 20:18

#	Modifying user name:	WinNT
#	Modification time:	15. 06. 2019 20:18

#	Program:	/corina/corina34_cracker 3.40 0067  02.08.2006

@<TRIPOS>MOLECULE
ASD02188001
  52   53    0    0    0
SMALL
NO_CHARGES


@<TRIPOS>ATOM
   1 P1            -0.5538     2.1609    -0.1653 P.3     
   2 O2            -0.5076     0.6861    -0.2805 O.2     
   3 O3             0.9434     2.7505    -0.2175 O.3     
   4 O4             0.2222     2.7245     3.4090 O.3     
   5 O5            -1.4124     2.7678    -1.3846 O.3     
   6 O6            -1.2428     2.5688     1.2315 O.3     
   7 P7            -1.0845     2.0545     2.7489 P.3     
   8 O8            -0.9417     0.5814     2.7582 O.2     
   9 O9            -2.3881     2.4727     3.5961 O.3     
  10 C10           -2.5976     2.0704     4.9512 C.3     
  11 C11           -3.9277     2.6373     5.4516 C.3     
  12 C12           -4.1487     2.2131     6.8807 C.2     
  13 C13           -3.7489     2.8942     7.9556 C.2     
  14 C14           -4.0653     2.3076     9.1688 C.2     
  15 C15           -4.7220     1.1501     9.0792 C.2     
  16 S16           -4.9800     0.7479     7.3864 S.3     
  17 C17           -3.0084     4.2030     7.8567 C.3     
  18 C18           -5.1778     0.3169    10.2493 C.3     
  19 C19           -6.6750     0.5339    10.4774 C.3     
  20 O20           -4.9329    -1.0640     9.9748 O.3     
  21 C21           -3.6953     2.9294    10.4908 C.3     
  22 C22           -0.0458     1.3522    11.8022 C.ar    
  23 N23           -0.7136     2.1576    12.6035 N.ar    
  24 C24           -1.8764     2.6800    12.2253 C.ar    
  25 C25           -2.3814     2.3618    10.9626 C.ar    
  26 C26           -1.6469     1.5139    10.1577 C.ar    
  27 N27           -0.4954     1.0330    10.6055 N.ar    
  28 C28            1.2716     0.7855    12.2650 C.3     
  29 N29           -2.5759     3.5260    13.0704 N.pl3   
  30 H30            0.9895     3.7138    -0.1472 H       
  31 H31            0.1976     3.6908     3.4363 H       
  32 H32           -1.0546     2.5609    -2.2588 H       
  33 H33           -2.6223     0.9822     5.0075 H       
  34 H34           -1.7852     2.4480     5.5721 H       
  35 H35           -3.9030     3.7256     5.3953 H       
  36 H36           -4.7402     2.2597     4.8308 H       
  37 H37           -3.7238     5.0253     7.8448 H       
  38 H38           -2.3451     4.3110     8.7149 H       
  39 H39           -2.4206     4.2195     6.9389 H       
  40 H40           -4.6275     0.6130    11.1424 H       
  41 H41           -7.2175     0.3207     9.5564 H       
  42 H42           -7.0227    -0.1329    11.2665 H       
  43 H43           -6.8515     1.5684    10.7720 H       
  44 H44           -5.3921    -1.3967     9.1916 H       
  45 H45           -3.6028     4.0089    10.3714 H       
  46 H46           -4.4704     2.7101    11.2251 H       
  47 H47           -2.0062     1.2453     9.1752 H       
  48 H48            1.0997    -0.1592    12.7808 H       
  49 H49            1.9173     0.6167    11.4032 H       
  50 H50            1.7508     1.4892    12.9457 H       
  51 H51           -2.1848     3.8004    13.9146 H       
  52 H52           -3.4569     3.8438    12.8180 H       
@<TRIPOS>BOND
   1    1    2 2
   2    1    3 1
   3    1    5 1
   4    1    6 1
   5    3   30 1
   6    4    7 1
   7    4   31 1
   8    5   32 1
   9    6    7 1
  10    7    8 2
  11    7    9 1
  12    9   10 1
  13   10   11 1
  14   10   33 1
  15   10   34 1
  16   11   12 1
  17   11   35 1
  18   11   36 1
  19   12   13 2
  20   12   16 1
  21   13   14 1
  22   13   17 1
  23   14   15 2
  24   14   21 1
  25   15   16 1
  26   15   18 1
  27   17   37 1
  28   17   38 1
  29   17   39 1
  30   18   19 1
  31   18   20 1
  32   18   40 1
  33   19   41 1
  34   19   42 1
  35   19   43 1
  36   20   44 1
  37   21   25 1
  38   21   45 1
  39   21   46 1
  40   22   23 ar
  41   22   27 ar
  42   22   28 1
  43   23   24 ar
  44   24   25 ar
  45   24   29 1
  46   25   26 ar
  47   26   27 ar
  48   26   47 1
  49   28   48 1
  50   28   49 1
  51   28   50 1
  52   29   51 1
  53   29   52 1

#	End of record

