#	Name: ASD01200391
#	Creating user name:	WinNT
#	Creation time:	15. 06. 2019 19:09

#	Modifying user name:	WinNT
#	Modification time:	15. 06. 2019 19:09

#	Program:	/corina/corina34_cracker 3.40 0067  02.08.2006

@<TRIPOS>MOLECULE
ASD01200391
  74   76    0    0    0
SMALL
NO_CHARGES


@<TRIPOS>ATOM
   1 N1            -0.0178     1.4608     0.0101 N.pl3   
   2 C2             0.0235     0.0158     0.2482 C.3     
   3 C3            -0.9861    -0.3505     1.3379 C.3     
   4 P4            -0.3970    -0.8659    -1.2910 P.3     
   5 C5             1.1735     2.1776    -0.1526 C.ar    
   6 O6            -0.2244    -2.4507    -1.0659 O.3     
   7 O7            -1.7989    -0.5701    -1.6618 O.2     
   8 O8             0.5842    -0.3816    -2.4721 O.3     
   9 C9             0.4417    -0.8112    -3.8275 C.3     
  10 C10            1.5324    -0.1656    -4.6844 C.3     
  11 C11           -0.5779    -3.4203    -2.0544 C.3     
  12 C12           -0.2880    -4.8238    -1.5187 C.3     
  13 C13            2.3819     1.5065    -0.2168 C.ar    
  14 C14            3.5680     2.2255    -0.3797 C.ar    
  15 C15            3.5294     3.6182    -0.4771 C.ar    
  16 C16            2.3219     4.2814    -0.4124 C.ar    
  17 C17            1.1425     3.5684    -0.2560 C.ar    
  18 N18           -2.3356     0.0361     0.9051 N.3     
  19 O19           -0.0447     4.2268    -0.1928 O.3     
  20 C20            4.8606     1.5147    -0.4483 C.2     
  21 N21            6.0200     2.0930    -0.5985 N.2     
  22 C22            7.0729     1.3219    -0.6404 C.2     
  23 C23            6.7919    -0.0132    -0.5170 C.2     
  24 S24            5.0474    -0.1805    -0.3348 S.3     
  25 C25            7.7666    -1.1045    -0.5283 C.2     
  26 C26            8.4728     1.8533    -0.8104 C.3     
  27 O27            7.3513    -2.3813    -0.3966 O.3     
  28 O28            8.9514    -0.8605    -0.6565 O.2     
  29 C29            8.3572    -3.3961    -0.4164 C.3     
  30 C30            7.7004    -4.7685    -0.2553 C.3     
  31 C31           -3.3337    -0.3012     1.9288 C.3     
  32 C32           -4.6807    -0.4806     1.2774 C.ar    
  33 C33           -3.4111     0.8287     2.9575 C.3     
  34 C34           -5.5208    -1.4958     1.6951 C.ar    
  35 C35           -6.7564    -1.6603     1.0974 C.ar    
  36 C36           -7.1521    -0.8094     0.0824 C.ar    
  37 C37           -6.3123     0.2064    -0.3347 C.ar    
  38 C38           -5.0785     0.3736     0.2659 C.ar    
  39 H39           -0.8707     1.9201    -0.0388 H       
  40 H40            1.0248    -0.2710     0.5693 H       
  41 H41           -0.9554    -1.4256     1.5150 H       
  42 H42           -0.7347     0.1767     2.2582 H       
  43 H43            0.5356    -1.8961    -3.8766 H       
  44 H44           -0.5379    -0.5141    -4.2018 H       
  45 H45            1.4238    -0.4933    -5.7183 H       
  46 H46            1.4385     0.9192    -4.6354 H       
  47 H47            2.5121    -0.4628    -4.3102 H       
  48 H48           -1.6392    -3.3321    -2.2866 H       
  49 H49            0.0073    -3.2481    -2.9577 H       
  50 H50           -0.5576    -5.5633    -2.2726 H       
  51 H51            0.7733    -4.9120    -1.2864 H       
  52 H52           -0.8731    -4.9959    -0.6153 H       
  53 H53            2.4078     0.4295    -0.1408 H       
  54 H54            4.4455     4.1761    -0.6027 H       
  55 H55            2.2943     5.3584    -0.4876 H       
  56 H56           -2.3736     1.0172     0.6725 H       
  57 H57           -0.4684     4.3573    -1.0522 H       
  58 H58            8.9060     2.0559     0.1691 H       
  59 H59            9.0815     1.1139    -1.3309 H       
  60 H60            8.4436     2.7745    -1.3923 H       
  61 H61            8.8924    -3.3587    -1.3652 H       
  62 H62            9.0571    -3.2299     0.4024 H       
  63 H63            7.1651    -4.8060     0.6935 H       
  64 H64            7.0004    -4.9347    -1.0741 H       
  65 H65            8.4676    -5.5426    -0.2704 H       
  66 H66           -3.0448    -1.2268     2.4268 H       
  67 H67           -4.1516     0.5784     3.7171 H       
  68 H68           -2.4368     0.9584     3.4287 H       
  69 H69           -3.6999     1.7543     2.4595 H       
  70 H70           -5.2117    -2.1606     2.4881 H       
  71 H71           -7.4125    -2.4539     1.4233 H       
  72 H72           -8.1171    -0.9383    -0.3850 H       
  73 H73           -6.6213     0.8710    -1.1279 H       
  74 H74           -4.4224     1.1672    -0.0599 H       
@<TRIPOS>BOND
   1    1    2 1
   2    1    5 1
   3    1   39 1
   4    2    3 1
   5    2    4 1
   6    2   40 1
   7    3   18 1
   8    3   41 1
   9    3   42 1
  10    4    6 1
  11    4    7 2
  12    4    8 1
  13    5   13 ar
  14    5   17 ar
  15    6   11 1
  16    8    9 1
  17    9   10 1
  18    9   43 1
  19    9   44 1
  20   10   45 1
  21   10   46 1
  22   10   47 1
  23   11   12 1
  24   11   48 1
  25   11   49 1
  26   12   50 1
  27   12   51 1
  28   12   52 1
  29   13   14 ar
  30   13   53 1
  31   14   15 ar
  32   14   20 1
  33   15   16 ar
  34   15   54 1
  35   16   17 ar
  36   16   55 1
  37   17   19 1
  38   18   31 1
  39   18   56 1
  40   19   57 1
  41   20   21 2
  42   20   24 1
  43   21   22 1
  44   22   23 2
  45   22   26 1
  46   23   24 1
  47   23   25 1
  48   25   27 1
  49   25   28 2
  50   26   58 1
  51   26   59 1
  52   26   60 1
  53   27   29 1
  54   29   30 1
  55   29   61 1
  56   29   62 1
  57   30   63 1
  58   30   64 1
  59   30   65 1
  60   31   32 1
  61   31   33 1
  62   31   66 1
  63   32   34 ar
  64   32   38 ar
  65   33   67 1
  66   33   68 1
  67   33   69 1
  68   34   35 ar
  69   34   70 1
  70   35   36 ar
  71   35   71 1
  72   36   37 ar
  73   36   72 1
  74   37   38 ar
  75   37   73 1
  76   38   74 1

#	End of record

