#	Name: ASD05490033
#	Creating user name:	WinNT
#	Creation time:	15. 06. 2019 21:00

#	Modifying user name:	WinNT
#	Modification time:	15. 06. 2019 21:00

#	Program:	/corina/corina34_cracker 3.40 0067  02.08.2006

@<TRIPOS>MOLECULE
ASD05490033
  66   70    0    0    0
SMALL
NO_CHARGES


@<TRIPOS>ATOM
   1 O1            -0.0173     1.4248     0.0099 O.3     
   2 N2             2.7241     5.3595     0.0030 N.pl3   
   3 N3             2.2883     1.3280    -0.0127 N.ar    
   4 C4             3.4877     1.9005    -0.0215 C.ar    
   5 C5             1.1818     2.0565     0.0018 C.ar    
   6 N6             1.2068     3.3779     0.0082 N.ar    
   7 C7             2.3634     4.0326     0.0003 C.ar    
   8 C8             3.5624     3.3026    -0.0151 C.ar    
   9 N9             4.6391     1.1308    -0.0361 N.pl3   
  10 C10            4.0899     5.4129    -0.0163 C.2     
  11 N11            4.5806     4.2015    -0.0210 N.2     
  12 C12            1.8119     6.5058     0.0175 C.3     
  13 C13            1.5133     6.8921     1.4432 C.2     
  14 S14            0.1959     6.2621     2.4301 S.3     
  15 C15            0.0021    -0.0041     0.0020 C.3     
  16 C16           -1.4333    -0.5336     0.0129 C.3     
  17 C17           -1.4126    -2.0635     0.0045 C.3     
  18 C18           -2.8479    -2.5931     0.0153 C.3     
  19 C19            2.2056     7.7676     2.1797 C.2     
  20 N20            1.7704     7.9561     3.4041 N.2     
  21 C21            0.7219     7.2765     3.7711 C.2     
  22 C22            0.0780     7.3435     5.1005 C.ar    
  23 C23            0.5916     8.1870     6.0860 C.ar    
  24 C24           -0.0140     8.2449     7.3246 C.ar    
  25 C25           -1.1277     7.4685     7.5902 C.ar    
  26 C26           -1.6417     6.6296     6.6172 C.ar    
  27 C27           -1.0496     6.5674     5.3728 C.ar    
  28 C28            0.5393     9.1554     8.3903 C.3     
  29 N29           -0.1002    10.4740     8.2882 N.3     
  30 C30            0.2348    11.3152     9.4518 C.3     
  31 C31            0.8788    12.6089     8.9105 C.3     
  32 C32            0.3559    12.6755     7.4514 C.3     
  33 C33            0.3282    11.1770     7.0602 C.3     
  34 O34            4.8243     6.5500    -0.0203 O.3     
  35 C35            6.2458     6.4042    -0.0300 C.3     
  36 H36            4.5753     0.1629    -0.0401 H       
  37 H37            5.5091     1.5596    -0.0425 H       
  38 H38            2.2770     7.3467    -0.4969 H       
  39 H39            0.8842     6.2383    -0.4884 H       
  40 H40            0.5123    -0.3556    -0.8948 H       
  41 H41            0.5293    -0.3651     0.8851 H       
  42 H42           -1.9435    -0.1821     0.9097 H       
  43 H43           -1.9605    -0.1726    -0.8702 H       
  44 H44           -0.9024    -2.4150    -0.8923 H       
  45 H45           -0.8854    -2.4246     0.8875 H       
  46 H46           -2.8332    -3.6829     0.0093 H       
  47 H47           -3.3581    -2.2415     0.9121 H       
  48 H48           -3.3751    -2.2320    -0.8677 H       
  49 H49            3.0692     8.2872     1.7916 H       
  50 H50            1.4614     8.7931     5.8801 H       
  51 H51           -1.5978     7.5172     8.5613 H       
  52 H52           -2.5110     6.0254     6.8311 H       
  53 H53           -1.4520     5.9125     4.6142 H       
  54 H54            0.3378     8.7290     9.3730 H       
  55 H55            1.6155     9.2621     8.2542 H       
  56 H56           -0.6711    11.5566    10.0080 H       
  57 H57            0.9402    10.7917    10.0971 H       
  58 H58            0.5420    13.4748     9.4805 H       
  59 H59            1.9661    12.5343     8.9272 H       
  60 H60           -0.6443    13.1073     7.4144 H       
  61 H61            1.0436    13.2326     6.8152 H       
  62 H62            1.3220    10.8448     6.7598 H       
  63 H63           -0.3884    11.0077     6.2564 H       
  64 H64            6.7121     7.3894    -0.0323 H       
  65 H65            6.5608     5.8553     0.8575 H       
  66 H66            6.5488     5.8567    -0.9224 H       
@<TRIPOS>BOND
   1    1   15 1
   2    1    5 1
   3    2   12 1
   4    2    7 1
   5    2   10 1
   6    3    4 ar
   7    3    5 ar
   8    4    9 1
   9    4    8 ar
  10    5    6 ar
  11    6    7 ar
  12    7    8 ar
  13    8   11 1
  14    9   36 1
  15    9   37 1
  16   10   11 2
  17   10   34 1
  18   12   13 1
  19   12   38 1
  20   12   39 1
  21   13   19 2
  22   13   14 1
  23   14   21 1
  24   15   16 1
  25   15   40 1
  26   15   41 1
  27   16   17 1
  28   16   42 1
  29   16   43 1
  30   17   18 1
  31   17   44 1
  32   17   45 1
  33   18   46 1
  34   18   47 1
  35   18   48 1
  36   19   20 1
  37   19   49 1
  38   20   21 2
  39   21   22 1
  40   22   23 ar
  41   22   27 ar
  42   23   24 ar
  43   23   50 1
  44   24   25 ar
  45   24   28 1
  46   25   26 ar
  47   25   51 1
  48   26   27 ar
  49   26   52 1
  50   27   53 1
  51   28   29 1
  52   28   54 1
  53   28   55 1
  54   29   30 1
  55   29   33 1
  56   30   31 1
  57   30   56 1
  58   30   57 1
  59   31   32 1
  60   31   58 1
  61   31   59 1
  62   32   33 1
  63   32   60 1
  64   32   61 1
  65   33   62 1
  66   33   63 1
  67   34   35 1
  68   35   64 1
  69   35   65 1
  70   35   66 1

#	End of record

