#	Name: ASD03090136
#	Creating user name:	WinNT
#	Creation time:	15. 06. 2019 20:28

#	Modifying user name:	WinNT
#	Modification time:	15. 06. 2019 20:28

#	Program:	/corina/corina34_cracker 3.40 0067  02.08.2006

@<TRIPOS>MOLECULE
ASD03090136
  61   64    0    0    0
SMALL
NO_CHARGES


@<TRIPOS>ATOM
   1 C1            -0.0186     1.5024     0.0154 C.2     
   2 C2             0.0014    -0.0045     0.0123 C.3     
   3 O3             1.0237     2.1227     0.0093 O.2     
   4 N4            -1.1946     2.1607     0.0195 N.am    
   5 C5             1.4287    -0.4880     0.0013 C.ar    
   6 C6             2.0905    -0.7116     1.1947 C.ar    
   7 C7             3.3986    -1.1547     1.1881 C.ar    
   8 C8             4.0493    -1.3757    -0.0191 C.ar    
   9 C9             3.3815    -1.1500    -1.2160 C.ar    
  10 C10            2.0717    -0.7123    -1.2023 C.ar    
  11 N11            5.3724    -1.8233    -0.0293 N.pl3   
  12 C12            6.0571    -2.0558    -1.3034 C.3     
  13 C13            7.5680    -1.9233    -1.1020 C.3     
  14 C14            8.0380    -2.9552    -0.0747 C.3     
  15 C15            7.7122    -4.3623    -0.5794 C.3     
  16 C16            6.2013    -4.4948    -0.7808 C.3     
  17 C17            5.7314    -3.4630    -1.8081 C.3     
  18 C18            9.5262    -2.8247     0.1237 C.ar    
  19 C19           10.0332    -2.5266     1.3747 C.ar    
  20 C20           11.3982    -2.4069     1.5567 C.ar    
  21 C21           12.2563    -2.5856     0.4878 C.ar    
  22 C22           11.7494    -2.8845    -0.7630 C.ar    
  23 C23           10.3846    -3.0086    -0.9441 C.ar    
  24 C24           -1.2153     3.5574     0.1329 C.ar    
  25 C25           -2.1839     4.2939    -0.5363 C.ar    
  26 C26           -2.2048     5.6696    -0.4248 C.ar    
  27 C27           -1.2567     6.3175     0.3575 C.ar    
  28 C28           -0.2879     5.5802     1.0273 C.ar    
  29 C29           -0.2708     4.2041     0.9191 C.ar    
  30 S30           -1.2824     8.0736     0.4997 S.3     
  31 C31            0.1193     8.4145     1.5995 C.3     
  32 F32           -0.0833     7.7727     2.8260 F       
  33 F33            1.2978     7.9397     1.0139 F       
  34 H34           -0.5013    -0.3764     0.9052 H       
  35 H35           -0.5139    -0.3729    -0.8747 H       
  36 H36           -2.0266     1.6678    -0.0562 H       
  37 H37            1.5841    -0.5393     2.1329 H       
  38 H38            3.9150    -1.3289     2.1205 H       
  39 H39            3.8846    -1.3208    -2.1563 H       
  40 H40            1.5504    -0.5412    -2.1325 H       
  41 H41            5.8378    -1.9803     0.8071 H       
  42 H42            5.7223    -1.3208    -2.0353 H       
  43 H43            8.0775    -2.0963    -2.0499 H       
  44 H44            7.8001    -0.9209    -0.7424 H       
  45 H45            7.5285    -2.7822     0.8733 H       
  46 H46            8.2217    -4.5353    -1.5273 H       
  47 H47            8.0470    -5.0974     0.1525 H       
  48 H48            5.9692    -5.4973    -1.1404 H       
  49 H49            5.6919    -4.3218     0.1671 H       
  50 H50            4.6550    -3.5574    -1.9516 H       
  51 H51            6.2408    -3.6360    -2.7561 H       
  52 H52            9.3627    -2.3870     2.2099 H       
  53 H53           11.7943    -2.1733     2.5339 H       
  54 H54           13.3228    -2.4914     0.6298 H       
  55 H55           12.4198    -3.0238    -1.5982 H       
  56 H56            9.9887    -3.2457    -1.9205 H       
  57 H57           -2.9208     3.7903    -1.1443 H       
  58 H58           -2.9577     6.2424    -0.9458 H       
  59 H59            0.4492     6.0833     1.6355 H       
  60 H60            0.4798     3.6306     1.4427 H       
  61 H61            0.2013     9.4893     1.7611 H       
@<TRIPOS>BOND
   1    1    2 1
   2    1    3 2
   3    1    4 am
   4    2    5 1
   5    2   34 1
   6    2   35 1
   7    4   24 1
   8    4   36 1
   9    5    6 ar
  10    5   10 ar
  11    6    7 ar
  12    6   37 1
  13    7    8 ar
  14    7   38 1
  15    8    9 ar
  16    8   11 1
  17    9   10 ar
  18    9   39 1
  19   10   40 1
  20   11   12 1
  21   11   41 1
  22   12   13 1
  23   12   17 1
  24   12   42 1
  25   13   14 1
  26   13   43 1
  27   13   44 1
  28   14   15 1
  29   14   18 1
  30   14   45 1
  31   15   16 1
  32   15   46 1
  33   15   47 1
  34   16   17 1
  35   16   48 1
  36   16   49 1
  37   17   50 1
  38   17   51 1
  39   18   19 ar
  40   18   23 ar
  41   19   20 ar
  42   19   52 1
  43   20   21 ar
  44   20   53 1
  45   21   22 ar
  46   21   54 1
  47   22   23 ar
  48   22   55 1
  49   23   56 1
  50   24   25 ar
  51   24   29 ar
  52   25   26 ar
  53   25   57 1
  54   26   27 ar
  55   26   58 1
  56   27   28 ar
  57   27   30 1
  58   28   29 ar
  59   28   59 1
  60   29   60 1
  61   30   31 1
  62   31   32 1
  63   31   33 1
  64   31   61 1

#	End of record

