#	Name: ASD08150442
#	Creating user name:	WinNT
#	Creation time:	15. 06. 2019 21:16

#	Modifying user name:	WinNT
#	Modification time:	15. 06. 2019 21:16

#	Program:	/corina/corina34_cracker 3.40 0067  02.08.2006

@<TRIPOS>MOLECULE
ASD08150442
  26   28    0    0    0
SMALL
NO_CHARGES


@<TRIPOS>ATOM
   1 C1            -0.0157     1.3062     0.0092 C.ar    
   2 N2             0.0021    -0.0041     0.0020 N.ar    
   3 C3             1.1697    -0.6876    -0.0128 C.ar    
   4 C4             2.3559     0.0496    -0.0201 C.ar    
   5 C5             2.2830     1.4519    -0.0123 C.ar    
   6 N6             1.0893     2.0324     0.0026 N.ar    
   7 C7             1.3977    -2.0727    -0.0224 C.2     
   8 C8             2.6673    -2.4470    -0.0365 C.2     
   9 S9             3.7283    -1.0481    -0.0391 S.3     
  10 N10            3.4379     2.2170    -0.0187 N.3     
  11 C11            3.1192     3.6522    -0.0085 C.3     
  12 C12            4.4199     4.4579     0.0443 C.3     
  13 O13            5.2454     4.0945    -1.0656 O.3     
  14 C14            5.5758     2.7036    -1.1063 C.3     
  15 C15            4.2868     1.8801    -1.1708 C.3     
  16 Cl16          -1.5491     2.1200     0.0208 Cl      
  17 H17            0.5884    -2.7878    -0.0182 H       
  18 H18            3.0046    -3.4730    -0.0456 H       
  19 H19            2.5684     3.9091    -0.9134 H       
  20 H20            2.5117     3.8839     0.8663 H       
  21 H21            4.1909     5.5224    -0.0056 H       
  22 H22            4.9449     4.2411     0.9747 H       
  23 H23            6.1827     2.4993    -1.9883 H       
  24 H24            6.1343     2.4358    -0.2094 H       
  25 H25            4.5315     0.8183    -1.1443 H       
  26 H26            3.7546     2.1087    -2.0942 H       
@<TRIPOS>BOND
   1    1    2 ar
   2    1    6 ar
   3    1   16 1
   4    2    3 ar
   5    3    4 ar
   6    3    7 1
   7    4    5 ar
   8    4    9 1
   9    5    6 ar
  10    5   10 1
  11    7    8 2
  12    7   17 1
  13    8    9 1
  14    8   18 1
  15   10   11 1
  16   10   15 1
  17   11   12 1
  18   11   19 1
  19   11   20 1
  20   12   13 1
  21   12   21 1
  22   12   22 1
  23   13   14 1
  24   14   15 1
  25   14   23 1
  26   14   24 1
  27   15   25 1
  28   15   26 1

#	End of record

