#	Name: ASD04882190
#	Creating user name:	WinNT
#	Creation time:	15. 06. 2019 20:54

#	Modifying user name:	WinNT
#	Modification time:	15. 06. 2019 20:54

#	Program:	/corina/corina34_cracker 3.40 0067  02.08.2006

@<TRIPOS>MOLECULE
ASD04882190
  70   74    0    0    0
SMALL
NO_CHARGES


@<TRIPOS>ATOM
   1 C1            -0.1617     1.4752     0.4539 C.2     
   2 C2            -0.1422     0.0094     0.4883 C.2     
   3 N3            -1.1637    -0.6908    -0.0433 N.am    
   4 C4            -1.0913    -2.0879    -0.1181 C.ar    
   5 C5            -2.2495    -2.8570     0.0250 C.ar    
   6 C6            -2.1792    -4.2434    -0.0495 C.ar    
   7 C7            -0.9686    -4.8640    -0.2639 C.ar    
   8 C8             0.1935    -4.1009    -0.4078 C.ar    
   9 C9             0.1247    -2.7066    -0.3391 C.ar    
  10 N10           -3.4755    -2.2336     0.2429 N.3     
  11 C11           -3.4998    -1.5615     1.5495 C.3     
  12 C12           -4.5823    -3.1935     0.1269 C.3     
  13 C13           -5.9130    -2.4561     0.2937 C.3     
  14 N14           -5.9373    -1.7840     1.6003 N.3     
  15 C15           -4.8306    -0.8242     1.7162 C.3     
  16 C16           -7.1670    -1.1588     1.8189 C.ar    
  17 C17           -7.9513    -1.5260     2.9047 C.ar    
  18 C18           -7.6059    -0.1642     0.9537 C.ar    
  19 C19           -8.8221     0.4518     1.1727 C.ar    
  20 C20           -9.6030     0.0801     2.2520 C.ar    
  21 C21           -9.1669    -0.9057     3.1179 C.ar    
  22 C22            1.4902    -4.7661    -0.6375 C.2     
  23 N23            1.5547    -6.1104    -0.7086 N.am    
  24 O24            2.5007    -4.1014    -0.7626 O.2     
  25 O25            0.7966    -0.5749     0.9970 O.2     
  26 C26            2.8423    -6.7709    -0.9367 C.3     
  27 C27            2.6384    -8.2868    -0.9744 C.3     
  28 C28            3.9629    -8.9662    -1.2089 C.2     
  29 C29            0.8031     2.3025     0.9533 C.2     
  30 C30            0.3766     3.6164     0.7041 C.2     
  31 C31           -0.8147     3.5346     0.0715 C.2     
  32 O32           -1.1333     2.2427    -0.0819 O.3     
  33 C33           -7.4768    -2.6003     3.8490 C.3     
  34 C34           -1.6453     4.7042    -0.3903 C.3     
  35 C35            4.8287    -9.3743    -0.2525 C.2     
  36 C36            4.5117    -9.2918    -2.4536 C.2     
  37 N37            5.6680    -9.8699    -2.2518 N.2     
  38 N38            5.8903    -9.9334    -0.8702 N.pl3   
  39 H39           -1.9490    -0.2275    -0.3742 H       
  40 H40           -3.0758    -4.8351     0.0615 H       
  41 H41           -0.9171    -5.9413    -0.3205 H       
  42 H42            1.0210    -2.1144    -0.4500 H       
  43 H43           -3.3929    -2.3026     2.3417 H       
  44 H44           -2.6786    -0.8470     1.6062 H       
  45 H45           -4.5503    -3.6688    -0.8535 H       
  46 H46           -4.4877    -3.9530     0.9029 H       
  47 H47           -6.0200    -1.7151    -0.4985 H       
  48 H48           -6.7343    -3.1706     0.2370 H       
  49 H49           -4.8626    -0.3489     2.6966 H       
  50 H50           -4.9252    -0.0646     0.9402 H       
  51 H51           -6.9963     0.1271     0.1112 H       
  52 H52           -9.1639     1.2250     0.5005 H       
  53 H53          -10.5536     0.5640     2.4213 H       
  54 H54           -9.7792    -1.1937     3.9597 H       
  55 H55            0.7486    -6.6406    -0.6088 H       
  56 H56            3.2589    -6.4366    -1.8869 H       
  57 H57            3.5291    -6.5167    -0.1294 H       
  58 H58            2.2218    -8.6211    -0.0242 H       
  59 H59            1.9516    -8.5410    -1.7817 H       
  60 H60            1.7171     2.0038     1.4451 H       
  61 H61            0.9016     4.5224     0.9687 H       
  62 H62           -6.8974    -2.1471     4.6534 H       
  63 H63           -8.3374    -3.1204     4.2696 H       
  64 H64           -6.8523    -3.3105     3.3071 H       
  65 H65           -1.3628     4.9708    -1.4087 H       
  66 H66           -2.7007     4.4327    -0.3651 H       
  67 H67           -1.4731     5.5549     0.2691 H       
  68 H68            4.6945    -9.2707     0.8141 H       
  69 H69            4.0590    -9.0996    -3.4151 H       
  70 H70            6.6696   -10.3126    -0.4344 H       
@<TRIPOS>BOND
   1    1    2 1
   2    1   29 2
   3    1   32 1
   4    2    3 am
   5    2   25 2
   6    3    4 1
   7    3   39 1
   8    4    5 ar
   9    4    9 ar
  10    5    6 ar
  11    5   10 1
  12    6    7 ar
  13    6   40 1
  14    7    8 ar
  15    7   41 1
  16    8    9 ar
  17    8   22 1
  18    9   42 1
  19   10   11 1
  20   10   12 1
  21   11   15 1
  22   11   43 1
  23   11   44 1
  24   12   13 1
  25   12   45 1
  26   12   46 1
  27   13   14 1
  28   13   47 1
  29   13   48 1
  30   14   15 1
  31   14   16 1
  32   15   49 1
  33   15   50 1
  34   16   17 ar
  35   16   18 ar
  36   17   33 1
  37   17   21 ar
  38   18   19 ar
  39   18   51 1
  40   19   20 ar
  41   19   52 1
  42   20   21 ar
  43   20   53 1
  44   21   54 1
  45   22   23 am
  46   22   24 2
  47   23   26 1
  48   23   55 1
  49   26   27 1
  50   26   56 1
  51   26   57 1
  52   27   28 1
  53   27   58 1
  54   27   59 1
  55   28   35 2
  56   28   36 1
  57   29   30 1
  58   29   60 1
  59   30   31 2
  60   30   61 1
  61   31   32 1
  62   31   34 1
  63   33   62 1
  64   33   63 1
  65   33   64 1
  66   34   65 1
  67   34   66 1
  68   34   67 1
  69   35   38 1
  70   35   68 1
  71   36   37 2
  72   36   69 1
  73   37   38 1
  74   38   70 1

#	End of record

