#	Name: ASD01410893
#	Creating user name:	WinNT
#	Creation time:	15. 06. 2019 19:18

#	Modifying user name:	WinNT
#	Modification time:	15. 06. 2019 19:18

#	Program:	/corina/corina34_cracker 3.40 0067  02.08.2006

@<TRIPOS>MOLECULE
ASD01410893
  68   71    0    0    0
SMALL
NO_CHARGES


@<TRIPOS>ATOM
   1 C1            -1.1302     2.6190     0.2815 C.ar    
   2 C2            -1.5760     0.2589     0.2000 C.ar    
   3 C3            -2.9385     0.5136     0.1289 C.ar    
   4 C4            -3.4017     1.8381     0.1462 C.ar    
   5 C5            -2.4849     2.8898     0.2171 C.ar    
   6 O6            -0.2376     3.6419     0.3562 O.3     
   7 C7             0.4473     3.9729    -0.7671 C.ar    
   8 N8            -3.8445    -0.5431     0.0522 N.am    
   9 C9            -4.2593    -1.1582     1.1774 C.2     
  10 C10           -3.8182    -0.6441     2.5235 C.3     
  11 O11           -4.9875    -2.1255     1.1065 O.2     
  12 C12           -4.9020    -0.9393     3.5623 C.3     
  13 C13           -2.0693    -0.8154     4.2996 C.3     
  14 C14           -3.1531    -1.1106     5.3384 C.3     
  15 C15           -4.4542    -0.4174     4.9291 C.3     
  16 C16           -2.7053    -0.5886     6.7051 C.3     
  17 N17            0.2814     3.2604    -1.8695 N.ar    
  18 C18           -4.3457    -0.9851    -1.2516 C.3     
  19 C19            1.3117     5.0600    -0.7506 C.ar    
  20 C20            2.0041     5.3874    -1.9035 C.ar    
  21 C21            1.8062     4.6119    -3.0373 C.ar    
  22 C22            0.9272     3.5481    -2.9833 C.ar    
  23 C23           -2.5171    -1.3373     2.9329 C.3     
  24 C24           -0.6786     1.3047     0.2759 C.ar    
  25 C25           -3.4727    -2.0963    -1.7750 C.ar    
  26 C26           -3.8258    -3.4149    -1.5537 C.ar    
  27 C27           -2.3234    -1.7970    -2.4803 C.ar    
  28 C28           -1.5200    -2.8206    -2.9620 C.ar    
  29 C29           -1.8735    -4.1423    -2.7337 C.ar    
  30 C30           -3.0268    -4.4366    -2.0322 C.ar    
  31 O31           -0.3890    -2.5286    -3.6566 O.3     
  32 C32            0.3895    -3.6327    -4.1223 C.3     
  33 C33           -4.8467     2.1188     0.0707 C.2     
  34 O34           -5.6404     1.2021    -0.0067 O.2     
  35 O35           -5.2875     3.3921     0.0876 O.3     
  36 C36            1.4928     5.8725     0.5057 C.3     
  37 F37            2.4077     6.9034     0.2664 F       
  38 F38            0.2634     6.4196     0.8885 F       
  39 F39            1.9753     5.0487     1.5283 F       
  40 H40           -1.2168    -0.7595     0.1868 H       
  41 H41           -2.8333     3.9120     0.2219 H       
  42 H42           -3.6539     0.4318     2.4655 H       
  43 H43           -5.8289    -0.4455     3.2707 H       
  44 H44           -5.0663    -2.0153     3.6203 H       
  45 H45           -1.9050     0.2606     4.2416 H       
  46 H46           -1.1424    -1.3093     4.5912 H       
  47 H47           -3.3174    -2.1866     5.3964 H       
  48 H48           -4.2900     0.6586     4.8711 H       
  49 H49           -5.2264    -0.6277     5.6691 H       
  50 H50           -2.5411     0.4873     6.6471 H       
  51 H51           -3.4775    -0.7989     7.4452 H       
  52 H52           -1.7784    -1.0825     6.9967 H       
  53 H53           -5.3685    -1.3464    -1.1442 H       
  54 H54           -4.3274    -0.1487    -1.9504 H       
  55 H55            2.6827     6.2275    -1.9205 H       
  56 H56            2.3307     4.8405    -3.9533 H       
  57 H57            0.7699     2.9413    -3.8627 H       
  58 H58           -2.6814    -2.4133     2.9909 H       
  59 H59           -1.7450    -1.1271     2.1928 H       
  60 H60            0.3805     1.1005     0.3310 H       
  61 H61           -4.7271    -3.6469    -1.0058 H       
  62 H62           -2.0506    -0.7670    -2.6570 H       
  63 H63           -1.2499    -4.9408    -3.1079 H       
  64 H64           -3.3024    -5.4655    -1.8542 H       
  65 H65            1.2620    -3.2611    -4.6595 H       
  66 H66            0.7145    -4.2324    -3.2721 H       
  67 H67           -0.2143    -4.2469    -4.7904 H       
  68 H68           -6.2438     3.5264     0.0359 H       
@<TRIPOS>BOND
   1    1   24 ar
   2    1    6 1
   3    1    5 ar
   4    2    3 ar
   5    2   24 ar
   6    2   40 1
   7    3    4 ar
   8    3    8 1
   9    4    5 ar
  10    4   33 1
  11    5   41 1
  12    6    7 1
  13    7   19 ar
  14    7   17 ar
  15    8    9 am
  16    8   18 1
  17    9   11 2
  18    9   10 1
  19   10   12 1
  20   10   23 1
  21   10   42 1
  22   12   15 1
  23   12   43 1
  24   12   44 1
  25   13   14 1
  26   13   23 1
  27   13   45 1
  28   13   46 1
  29   14   15 1
  30   14   16 1
  31   14   47 1
  32   15   48 1
  33   15   49 1
  34   16   50 1
  35   16   51 1
  36   16   52 1
  37   17   22 ar
  38   18   25 1
  39   18   53 1
  40   18   54 1
  41   19   20 ar
  42   19   36 1
  43   20   21 ar
  44   20   55 1
  45   21   22 ar
  46   21   56 1
  47   22   57 1
  48   23   58 1
  49   23   59 1
  50   24   60 1
  51   25   26 ar
  52   25   27 ar
  53   26   30 ar
  54   26   61 1
  55   27   28 ar
  56   27   62 1
  57   28   29 ar
  58   28   31 1
  59   29   30 ar
  60   29   63 1
  61   30   64 1
  62   31   32 1
  63   32   65 1
  64   32   66 1
  65   32   67 1
  66   33   34 2
  67   33   35 1
  68   35   68 1
  69   36   37 1
  70   36   38 1
  71   36   39 1

#	End of record

