#	Name: ASD00069494
#	Creating user name:	WinNT
#	Creation time:	15. 06. 2019 18:29

#	Modifying user name:	WinNT
#	Modification time:	15. 06. 2019 18:29

#	Program:	/corina/corina34_cracker 3.40 0067  02.08.2006

@<TRIPOS>MOLECULE
ASD00069494
  32   33    0    0    0
SMALL
NO_CHARGES


@<TRIPOS>ATOM
   1 O1            -0.0174     1.4305     0.0099 O.3     
   2 B2             0.0021    -0.0041     0.0020 Du      
   3 O3             1.0670    -0.3534    -0.8937 O.3     
   4 C4            -0.9361    -0.9782     0.7993 C.2     
   5 C5             2.1089     0.6053    -0.6139 C.3     
   6 C6             1.3736     1.8147    -0.0013 C.3     
   7 C7             1.5763     3.0578    -0.8700 C.3     
   8 C8             1.8670     2.0726     1.4238 C.3     
   9 C9             3.1105     0.0270     0.3877 C.3     
  10 C10            2.8198     1.0122    -1.9062 C.3     
  11 C11           -1.9782    -0.6069     1.6756 C.2     
  12 N12           -2.5221    -1.6974     2.1412 N.2     
  13 N13           -1.8620    -2.8022     1.5917 N.pl3   
  14 C14           -0.8996    -2.3566     0.7695 C.2     
  15 C15           -2.1733    -4.2078     1.8631 C.3     
  16 H16            1.1819     2.8713    -1.8689 H       
  17 H17            1.0512     3.9024    -0.4239 H       
  18 H18            2.6403     3.2853    -0.9361 H       
  19 H19            2.9371     2.2793     1.4061 H       
  20 H20            1.3383     2.9292     1.8419 H       
  21 H21            1.6771     1.1929     2.0388 H       
  22 H22            3.5790    -0.8603    -0.0381 H       
  23 H23            3.8754     0.7717     0.6077 H       
  24 H24            2.5906    -0.2424     1.3071 H       
  25 H25            2.0954     1.4363    -2.6014 H       
  26 H26            3.5854     1.7548    -1.6813 H       
  27 H27            3.2852     0.1354    -2.3564 H       
  28 H28           -2.2735     0.4031     1.9185 H       
  29 H29           -0.2168    -2.9655     0.1956 H       
  30 H30           -2.9126    -4.5616     1.1446 H       
  31 H31           -1.2656    -4.8047     1.7742 H       
  32 H32           -2.5733    -4.3030     2.8726 H       
@<TRIPOS>BOND
   1    1    2 1
   2    1    6 1
   3    2    3 1
   4    2    4 1
   5    3    5 1
   6    4   11 1
   7    4   14 2
   8    5    6 1
   9    5    9 1
  10    5   10 1
  11    6    7 1
  12    6    8 1
  13    7   16 1
  14    7   17 1
  15    7   18 1
  16    8   19 1
  17    8   20 1
  18    8   21 1
  19    9   22 1
  20    9   23 1
  21    9   24 1
  22   10   25 1
  23   10   26 1
  24   10   27 1
  25   11   12 2
  26   11   28 1
  27   12   13 1
  28   13   14 1
  29   13   15 1
  30   14   29 1
  31   15   30 1
  32   15   31 1
  33   15   32 1

#	End of record

