#	Name: ASD03731342
#	Creating user name:	WinNT
#	Creation time:	15. 06. 2019 20:45

#	Modifying user name:	WinNT
#	Modification time:	15. 06. 2019 20:45

#	Program:	/corina/corina34_cracker 3.40 0067  02.08.2006

@<TRIPOS>MOLECULE
ASD03731342
  69   76    0    0    0
SMALL
NO_CHARGES


@<TRIPOS>ATOM
   1 O1             0.1122     1.3951     0.5320 O.3     
   2 C2             0.1592    -0.0402     0.6360 C.3     
   3 O3             1.4108    -0.3878     0.0152 O.3     
   4 C4             2.2147     0.7043     0.1764 C.ar    
   5 C5             1.4156     1.8004     0.4931 C.ar    
   6 C6             3.5863     0.8537     0.0776 C.ar    
   7 C7             4.1774     2.0953     0.2911 C.ar    
   8 C8             3.3681     3.1847     0.5987 C.ar    
   9 C9             2.0007     3.0376     0.7041 C.ar    
  10 O10            5.4937     2.4510     0.2600 O.3     
  11 C11            4.2827     4.3718     0.7408 C.3     
  12 C12            5.5961     3.8809     0.1167 C.3     
  13 N13            3.6434     6.5539     0.9728 N.am    
  14 C14            3.7495     5.5875     0.0391 C.2     
  15 C15            4.4629     4.7853     2.1714 C.ar    
  16 C16            4.9130     4.1365     3.2996 C.ar    
  17 C17            4.9651     4.8057     4.5093 C.ar    
  18 C18            4.5642     6.1273     4.5824 C.ar    
  19 C19            4.1118     6.7813     3.4555 C.ar    
  20 C20            4.0561     6.1156     2.2334 C.ar    
  21 O21            3.4695     5.6816    -1.1373 O.2     
  22 C22            3.1531     7.9067     0.6976 C.3     
  23 C23            1.6590     7.9484     0.8902 C.ar    
  24 C24            1.1330     8.2590     2.1316 C.ar    
  25 C25           -0.2337     8.2993     2.3146 C.ar    
  26 C26           -1.0864     8.0259     1.2439 C.ar    
  27 C27           -0.5493     7.7133    -0.0058 C.ar    
  28 C28            0.8193     7.6815    -0.1766 C.ar    
  29 C29           -2.5522     8.0668     1.4329 C.2     
  30 O30           -3.2642     8.5314     0.5642 O.2     
  31 N31           -3.0988     7.5890     2.5684 N.am    
  32 C32           -4.5390     7.7311     2.8309 C.3     
  33 C33           -5.1036     6.3565     3.2050 C.3     
  34 N34           -4.3223     5.7954     4.3152 N.3     
  35 C35           -2.9249     5.5693     3.9226 C.3     
  36 C36           -2.2721     6.9062     3.5751 C.3     
  37 C37           -4.8993     4.6298     4.7885 C.ar    
  38 N38           -4.3251     3.9859     5.7940 N.ar    
  39 C39           -4.8507     2.8693     6.2701 C.ar    
  40 C40           -6.0154     2.3753     5.7040 C.ar    
  41 C41           -6.5898     3.0739     4.6537 C.ar    
  42 N42           -6.0157     4.1873     4.2289 N.ar    
  43 H43            0.1516    -0.3488     1.6814 H       
  44 H44           -0.6740    -0.4908     0.0967 H       
  45 H45            4.2026     0.0010    -0.1665 H       
  46 H46            1.3847     3.8896     0.9512 H       
  47 H47            6.4542     4.2648     0.6685 H       
  48 H48            5.6537     4.1615    -0.9350 H       
  49 H49            5.2252     3.1043     3.2400 H       
  50 H50            5.3178     4.2972     5.3944 H       
  51 H51            4.6052     6.6497     5.5268 H       
  52 H52            3.7996     7.8131     3.5209 H       
  53 H53            3.6273     8.6111     1.3809 H       
  54 H54            3.3947     8.1786    -0.3300 H       
  55 H55            1.7939     8.4700     2.9594 H       
  56 H56           -0.6431     8.5416     3.2842 H       
  57 H57           -1.2036     7.5007    -0.8383 H       
  58 H58            1.2362     7.4437    -1.1441 H       
  59 H59           -4.6940     8.4272     3.6551 H       
  60 H60           -5.0395     8.1013     1.9361 H       
  61 H61           -6.1449     6.4616     3.5096 H       
  62 H62           -5.0415     5.6911     2.3438 H       
  63 H63           -2.3861     5.1035     4.7477 H       
  64 H64           -2.8932     4.9149     3.0514 H       
  65 H65           -1.2745     6.7313     3.1722 H       
  66 H66           -2.2050     7.5216     4.4723 H       
  67 H67           -4.3778     2.3486     7.0897 H       
  68 H68           -6.4655     1.4655     6.0731 H       
  69 H69           -7.4972     2.7156     4.1903 H       
@<TRIPOS>BOND
   1    1    2 1
   2    1    5 1
   3    2    3 1
   4    2   43 1
   5    2   44 1
   6    3    4 1
   7    4    5 ar
   8    4    6 ar
   9    5    9 ar
  10    6    7 ar
  11    6   45 1
  12    7    8 ar
  13    7   10 1
  14    8    9 ar
  15    8   11 1
  16    9   46 1
  17   10   12 1
  18   11   12 1
  19   11   14 1
  20   11   15 1
  21   12   47 1
  22   12   48 1
  23   13   14 am
  24   13   20 1
  25   13   22 1
  26   14   21 2
  27   15   16 ar
  28   15   20 ar
  29   16   17 ar
  30   16   49 1
  31   17   18 ar
  32   17   50 1
  33   18   19 ar
  34   18   51 1
  35   19   20 ar
  36   19   52 1
  37   22   23 1
  38   22   53 1
  39   22   54 1
  40   23   24 ar
  41   23   28 ar
  42   24   25 ar
  43   24   55 1
  44   25   26 ar
  45   25   56 1
  46   26   27 ar
  47   26   29 1
  48   27   28 ar
  49   27   57 1
  50   28   58 1
  51   29   30 2
  52   29   31 am
  53   31   32 1
  54   31   36 1
  55   32   33 1
  56   32   59 1
  57   32   60 1
  58   33   34 1
  59   33   61 1
  60   33   62 1
  61   34   35 1
  62   34   37 1
  63   35   36 1
  64   35   63 1
  65   35   64 1
  66   36   65 1
  67   36   66 1
  68   37   38 ar
  69   37   42 ar
  70   38   39 ar
  71   39   40 ar
  72   39   67 1
  73   40   41 ar
  74   40   68 1
  75   41   42 ar
  76   41   69 1

#	End of record

