#	Name: ASD03540477
#	Creating user name:	WinNT
#	Creation time:	15. 06. 2019 20:43

#	Modifying user name:	WinNT
#	Modification time:	15. 06. 2019 20:43

#	Program:	/corina/corina34_cracker 3.40 0067  02.08.2006

@<TRIPOS>MOLECULE
ASD03540477
  61   64    0    0    0
SMALL
NO_CHARGES


@<TRIPOS>ATOM
   1 C1             3.1748    -8.8535    -1.8029 C.2     
   2 C2             2.4198    -7.6671    -1.3504 C.ar    
   3 C3             1.0264    -7.7115    -1.2691 C.ar    
   4 C4             0.3277    -6.6004    -0.8454 C.ar    
   5 C5             1.0044    -5.4432    -0.5017 C.ar    
   6 C6             2.3847    -5.3921    -0.5804 C.ar    
   7 C7             3.0964    -6.4983    -0.9967 C.ar    
   8 O8             2.5946    -9.9009    -2.0078 O.2     
   9 O9             4.5058    -8.7724    -1.9936 O.3     
  10 C10            0.2342    -4.2329    -0.0401 C.3     
  11 N11           -3.3309    -4.6162     0.8048 N.am    
  12 C12           -2.1766    -4.2637     0.2141 C.2     
  13 N13           -0.9766    -4.6636     0.6631 N.am    
  14 C14           -0.8648    -5.4563     1.7512 C.2     
  15 C15           -2.1001    -5.8745     2.4393 C.ar    
  16 C16           -2.0685    -6.6891     3.5640 C.ar    
  17 C17           -3.2675    -7.0543     4.1748 C.ar    
  18 C18           -4.4865    -6.6015     3.6551 C.ar    
  19 C19           -4.5171    -5.8003     2.5488 C.ar    
  20 C20           -3.3326    -5.4262     1.9269 C.ar    
  21 O21            0.2253    -5.8157     2.1522 O.2     
  22 O22           -2.2210    -3.5511    -0.7698 O.2     
  23 C23            1.1057    -3.4040     0.9056 C.3     
  24 C24           -3.2520    -7.9200     5.3708 C.2     
  25 N25           -4.4105    -8.2736     5.9618 N.am    
  26 O26           -2.1942    -8.3139     5.8224 O.2     
  27 C27           -4.3951    -9.1325     7.1485 C.3     
  28 C28           -5.8087    -9.3764     7.6104 C.ar    
  29 C29           -6.5178   -10.4578     7.1210 C.ar    
  30 C30           -7.8137   -10.6836     7.5428 C.ar    
  31 C31           -8.4036    -9.8243     8.4584 C.ar    
  32 C32           -7.6900    -8.7400     8.9480 C.ar    
  33 C33           -6.3923    -8.5218     8.5273 C.ar    
  34 O34           -9.6785   -10.0440     8.8746 O.3     
  35 C35          -10.2214    -9.1186     9.8185 C.3     
  36 C36            0.2877    -8.9705    -1.6438 C.3     
  37 H37           -0.7499    -6.6333    -0.7820 H       
  38 H38            2.9066    -4.4857    -0.3114 H       
  39 H39            4.1742    -6.4588    -1.0531 H       
  40 H40            4.9566    -9.5750    -2.2900 H       
  41 H41           -0.0428    -3.6276    -0.9032 H       
  42 H42           -4.1722    -4.2966     0.4426 H       
  43 H43           -1.1258    -7.0360     3.9608 H       
  44 H44           -5.4113    -6.8887     4.1331 H       
  45 H45           -5.4635    -5.4577     2.1570 H       
  46 H46            1.3827    -4.0093     1.7687 H       
  47 H47            2.0066    -3.0835     0.3824 H       
  48 H48            0.5486    -2.5286     1.2395 H       
  49 H49           -5.2545    -7.9593     5.6015 H       
  50 H50           -3.9240   -10.0841     6.9022 H       
  51 H51           -3.8323    -8.6435     7.9437 H       
  52 H52           -6.0583   -11.1263     6.4079 H       
  53 H53           -8.3673   -11.5282     7.1599 H       
  54 H54           -8.1470    -8.0696     9.6608 H       
  55 H55           -5.8347    -7.6805     8.9117 H       
  56 H56          -11.2425    -9.4089    10.0659 H       
  57 H57           -9.6131    -9.1232    10.7230 H       
  58 H58          -10.2227    -8.1178     9.3866 H       
  59 H59            0.2802    -9.6538    -0.7946 H       
  60 H60           -0.7372    -8.7221    -1.9193 H       
  61 H61            0.7858    -9.4462    -2.4886 H       
@<TRIPOS>BOND
   1    1    2 1
   2    1    8 2
   3    1    9 1
   4    2    3 ar
   5    2    7 ar
   6    3    4 ar
   7    3   36 1
   8    4    5 ar
   9    4   37 1
  10    5    6 ar
  11    5   10 1
  12    6    7 ar
  13    6   38 1
  14    7   39 1
  15    9   40 1
  16   10   13 1
  17   10   23 1
  18   10   41 1
  19   11   12 am
  20   11   20 1
  21   11   42 1
  22   12   13 am
  23   12   22 2
  24   13   14 am
  25   14   15 1
  26   14   21 2
  27   15   16 ar
  28   15   20 ar
  29   16   17 ar
  30   16   43 1
  31   17   18 ar
  32   17   24 1
  33   18   19 ar
  34   18   44 1
  35   19   20 ar
  36   19   45 1
  37   23   46 1
  38   23   47 1
  39   23   48 1
  40   24   25 am
  41   24   26 2
  42   25   27 1
  43   25   49 1
  44   27   28 1
  45   27   50 1
  46   27   51 1
  47   28   29 ar
  48   28   33 ar
  49   29   30 ar
  50   29   52 1
  51   30   31 ar
  52   30   53 1
  53   31   32 ar
  54   31   34 1
  55   32   33 ar
  56   32   54 1
  57   33   55 1
  58   34   35 1
  59   35   56 1
  60   35   57 1
  61   35   58 1
  62   36   59 1
  63   36   60 1
  64   36   61 1

#	End of record

