#	Name: ASD03092047
#	Creating user name:	WinNT
#	Creation time:	15. 06. 2019 20:31

#	Modifying user name:	WinNT
#	Modification time:	15. 06. 2019 20:31

#	Program:	/corina/corina34_cracker 3.40 0067  02.08.2006

@<TRIPOS>MOLECULE
ASD03092047
  47   49    0    0    0
SMALL
NO_CHARGES


@<TRIPOS>ATOM
   1 N1             0.1393     1.5196     0.0341 N.am    
   2 C2             0.1277     0.1509    -0.0408 C.2     
   3 C3            -1.1767    -0.2429    -0.0870 C.2     
   4 C4            -1.9758     0.9106    -0.0392 C.2     
   5 N5            -1.1907     1.9590     0.0382 N.2     
   6 N6            -3.3729     0.9373    -0.0643 N.pl3   
   7 C7            -4.0513     2.1490     0.0880 C.ar    
   8 C8            -3.5061     3.3203    -0.4228 C.ar    
   9 C9            -4.1779     4.5194    -0.2719 C.ar    
  10 C10           -5.3930     4.5555     0.3875 C.ar    
  11 C11           -5.9419     3.3878     0.8992 C.ar    
  12 C12           -5.2740     2.1834     0.7452 C.ar    
  13 C13            1.3115    -0.7349    -0.0666 C.ar    
  14 C14            1.2346     2.3023     0.0983 C.2     
  15 Cl15          -3.4946     5.9819    -0.9105 Cl      
  16 C16            1.3043    -1.9647     0.6012 C.ar    
  17 C17            2.4303    -2.7599     0.5504 C.ar    
  18 N18            3.5024    -2.3745    -0.1150 N.ar    
  19 C19            3.5513    -1.2233    -0.7581 C.ar    
  20 C20            2.4685    -0.3692    -0.7647 C.ar    
  21 C21            4.8053    -0.8392    -1.5003 C.3     
  22 N22            1.1080     3.6434     0.0548 N.am    
  23 O23            2.3363     1.7989     0.1953 O.2     
  24 C24            2.2986     4.4942     0.1245 C.3     
  25 C25            1.8798     5.9642     0.0554 C.3     
  26 O26           -7.1358     3.4251     1.5472 O.3     
  27 C27           -7.7705     4.6999     1.6651 C.3     
  28 H28           -1.5320    -1.2609    -0.1493 H       
  29 H29           -3.8715     0.1144    -0.1874 H       
  30 H30           -2.5571     3.2943    -0.9377 H       
  31 H31           -5.9154     5.4934     0.5047 H       
  32 H32           -5.7002     1.2740     1.1426 H       
  33 H33            0.4304    -2.2863     1.1484 H       
  34 H34            2.4345    -3.7108     1.0625 H       
  35 H35            2.5156     0.5715    -1.2932 H       
  36 H36            4.7468    -1.2042    -2.5257 H       
  37 H37            4.9062     0.2461    -1.5061 H       
  38 H38            5.6701    -1.2818    -1.0060 H       
  39 H39            0.2286     4.0453    -0.0227 H       
  40 H40            2.8228     4.3095     1.0622 H       
  41 H41            2.9586     4.2648    -0.7120 H       
  42 H42            1.3556     6.1489    -0.8823 H       
  43 H43            1.2197     6.1936     0.8919 H       
  44 H44            2.7656     6.5972     0.1073 H       
  45 H45           -7.1188     5.3810     2.2125 H       
  46 H46           -7.9641     5.1028     0.6709 H       
  47 H47           -8.7126     4.5885     2.2018 H       
@<TRIPOS>BOND
   1    1    2 1
   2    1   14 am
   3    1    5 1
   4    2    3 2
   5    2   13 1
   6    3    4 1
   7    3   28 1
   8    4    5 2
   9    4    6 1
  10    6    7 1
  11    6   29 1
  12    7    8 ar
  13    7   12 ar
  14    8    9 ar
  15    8   30 1
  16    9   10 ar
  17    9   15 1
  18   10   11 ar
  19   10   31 1
  20   11   12 ar
  21   11   26 1
  22   12   32 1
  23   13   16 ar
  24   13   20 ar
  25   14   22 am
  26   14   23 2
  27   16   17 ar
  28   16   33 1
  29   17   18 ar
  30   17   34 1
  31   18   19 ar
  32   19   20 ar
  33   19   21 1
  34   20   35 1
  35   21   36 1
  36   21   37 1
  37   21   38 1
  38   22   24 1
  39   22   39 1
  40   24   25 1
  41   24   40 1
  42   24   41 1
  43   25   42 1
  44   25   43 1
  45   25   44 1
  46   26   27 1
  47   27   45 1
  48   27   46 1
  49   27   47 1

#	End of record

