#	Name: ASD00900006
#	Creating user name:	WinNT
#	Creation time:	15. 06. 2019 18:53

#	Modifying user name:	WinNT
#	Modification time:	15. 06. 2019 18:53

#	Program:	/corina/corina34_cracker 3.40 0067  02.08.2006

@<TRIPOS>MOLECULE
ASD00900006
  48   49    0    0    0
SMALL
NO_CHARGES


@<TRIPOS>ATOM
   1 C1            -0.0173     1.4248     0.0099 C.3     
   2 C2             1.4181     1.9544    -0.0010 C.3     
   3 C3             1.4245     3.4933     0.1334 C.3     
   4 O4             1.6779     3.8766     1.4866 O.3     
   5 C5             2.5832     3.9454    -0.7833 C.3     
   6 C6             3.1397     2.6261    -1.3632 C.3     
   7 O7             2.0408     1.6928    -1.2776 O.3     
   8 N8             3.5429     2.8126    -2.7592 N.am    
   9 P9            -1.3361    -0.8992     0.0100 P.3     
  10 O10           -2.2020    -0.5022    -1.1227 O.2     
  11 O11            0.0021    -0.0041     0.0020 O.3     
  12 O12           -2.1257    -0.6718     1.3945 O.3     
  13 O13           -0.9428    -2.4537    -0.1344 O.3     
  14 C14            4.8550     2.6944    -3.1073 C.2     
  15 C15            5.2152     2.8690    -4.4009 C.2     
  16 C16            4.2192     3.1689    -5.3528 C.2     
  17 N17            2.9542     3.2742    -4.9673 N.2     
  18 C18            2.6148     3.0943    -3.6920 C.2     
  19 O19            1.4447     3.1965    -3.3624 O.2     
  20 N20            4.5573     3.3517    -6.6736 N.pl3   
  21 P21           -1.7459    -3.7731    -0.5887 P.3     
  22 O22           -2.5295    -3.4778    -1.8091 O.2     
  23 O23           -0.7007    -4.9585    -0.8959 O.3     
  24 O24           -2.7419    -4.2281     0.5916 O.3     
  25 P25           -0.7786    -6.3276    -1.7394 P.3     
  26 O26           -2.0959    -6.9665    -1.5224 O.2     
  27 O27           -0.5903    -6.0047    -3.3053 O.3     
  28 O28            0.3881    -7.3248    -1.2529 O.3     
  29 C29            6.6584     2.7452    -4.8166 C.3     
  30 O30            7.4590     2.4392    -3.6732 O.3     
  31 H31           -0.5275     1.7763     0.9067 H       
  32 H32           -0.5445     1.7859    -0.8732 H       
  33 H33            1.9953     1.5007     0.8047 H       
  34 H34            0.4780     3.9106    -0.2099 H       
  35 H35            1.6929     4.8331     1.6281 H       
  36 H36            2.2103     4.5864    -1.5821 H       
  37 H37            3.3492     4.4613    -0.2044 H       
  38 H38            3.9826     2.2755    -0.7675 H       
  39 H39           -1.6172    -0.9117     2.1813 H       
  40 H40            5.5996     2.4643    -2.3596 H       
  41 H41            5.4831     3.2744    -6.9525 H       
  42 H42            3.8698     3.5579    -7.3262 H       
  43 H43           -2.2959    -4.4379     1.4235 H       
  44 H44            0.2532    -5.5840    -3.5215 H       
  45 H45            0.4014    -8.1718    -1.7194 H       
  46 H46            6.7572     1.9479    -5.5532 H       
  47 H47            6.9929     3.6864    -5.2529 H       
  48 H48            8.4017     2.3449    -3.8669 H       
@<TRIPOS>BOND
   1    1   11 1
   2    1    2 1
   3    1   31 1
   4    1   32 1
   5    2    3 1
   6    2    7 1
   7    2   33 1
   8    3    4 1
   9    3    5 1
  10    3   34 1
  11    4   35 1
  12    5    6 1
  13    5   36 1
  14    5   37 1
  15    6    7 1
  16    6    8 1
  17    6   38 1
  18    8   14 1
  19    8   18 am
  20    9   10 2
  21    9   11 1
  22    9   12 1
  23    9   13 1
  24   12   39 1
  25   13   21 1
  26   14   15 2
  27   14   40 1
  28   15   16 1
  29   15   29 1
  30   16   17 2
  31   16   20 1
  32   17   18 1
  33   18   19 2
  34   20   41 1
  35   20   42 1
  36   21   22 2
  37   21   23 1
  38   21   24 1
  39   23   25 1
  40   24   43 1
  41   25   26 2
  42   25   27 1
  43   25   28 1
  44   27   44 1
  45   28   45 1
  46   29   30 1
  47   29   46 1
  48   29   47 1
  49   30   48 1

#	End of record

