#	Name: ASD01883221
#	Creating user name:	WinNT
#	Creation time:	15. 06. 2019 19:46

#	Modifying user name:	WinNT
#	Modification time:	15. 06. 2019 19:46

#	Program:	/corina/corina34_cracker 3.40 0067  02.08.2006

@<TRIPOS>MOLECULE
ASD01883221
  45   46    0    0    0
SMALL
NO_CHARGES


@<TRIPOS>ATOM
   1 N1            -0.4766     2.0326     0.4333 N.am    
   2 C2            -0.2591     0.7136     0.2770 C.2     
   3 C3            -1.3572    -0.1767     0.1757 C.2     
   4 C4            -2.6590     0.3478     0.2419 C.2     
   5 C5            -2.8210     1.7367     0.4063 C.2     
   6 C6            -1.7347     2.5374     0.5023 C.2     
   7 O7             0.8811     0.2852     0.2223 O.2     
   8 C8            -1.1442    -1.5829     0.0087 C.1     
   9 N9            -0.9752    -2.6984    -0.1239 N.1     
  10 C10            0.6679     2.9412     0.5371 C.3     
  11 C11            1.0620     3.4266    -0.8593 C.3     
  12 C12            2.2573     4.3756    -0.7508 C.3     
  13 C13            2.7299     4.7628    -2.1535 C.3     
  14 C14            1.8413     5.6345     0.0128 C.3     
  15 C15           -3.8366    -0.5420     0.1404 C.ar    
  16 C16           -4.0816    -1.4950     1.1305 C.ar    
  17 C17           -5.1808    -2.3239     1.0334 C.ar    
  18 C18           -6.0417    -2.2146    -0.0424 C.ar    
  19 C19           -5.8062    -1.2691    -1.0337 C.ar    
  20 C20           -4.7089    -0.4276    -0.9421 C.ar    
  21 N21           -6.6804    -1.1630    -2.1214 N.am    
  22 C22           -6.2012    -0.8596    -3.3440 C.2     
  23 C23           -7.1256    -0.8485    -4.5342 C.3     
  24 O24           -5.0260    -0.5955    -3.4864 O.2     
  25 H25           -3.8122     2.1624     0.4594 H       
  26 H26           -1.8714     3.6013     0.6282 H       
  27 H27            0.3976     3.7967     1.1563 H       
  28 H28            1.5088     2.4161     0.9901 H       
  29 H29            1.3323     2.5712    -1.4784 H       
  30 H30            0.2211     3.9518    -1.3122 H       
  31 H31            3.0684     3.8790    -0.2183 H       
  32 H32            1.9188     5.2595    -2.6860 H       
  33 H33            3.5814     5.4389    -2.0763 H       
  34 H34            3.0263     3.8660    -2.6975 H       
  35 H35            1.5046     5.3586     1.0121 H       
  36 H36            2.6928     6.3105     0.0901 H       
  37 H37            1.0302     6.1311    -0.5197 H       
  38 H38           -3.4108    -1.5840     1.9722 H       
  39 H39           -5.3687    -3.0607     1.8004 H       
  40 H40           -6.9001    -2.8662    -0.1132 H       
  41 H41           -4.5244     0.3079    -1.7111 H       
  42 H42           -7.6312    -1.3079    -1.9954 H       
  43 H43           -8.1343    -1.1086    -4.2133 H       
  44 H44           -7.1314     0.1460    -4.9805 H       
  45 H45           -6.7797    -1.5748    -5.2697 H       
@<TRIPOS>BOND
   1    1    2 am
   2    1   10 1
   3    1    6 1
   4    2    3 1
   5    2    7 2
   6    3    4 2
   7    3    8 1
   8    4    5 1
   9    4   15 1
  10    5    6 2
  11    5   25 1
  12    6   26 1
  13    8    9 3
  14   10   11 1
  15   10   27 1
  16   10   28 1
  17   11   12 1
  18   11   29 1
  19   11   30 1
  20   12   13 1
  21   12   14 1
  22   12   31 1
  23   13   32 1
  24   13   33 1
  25   13   34 1
  26   14   35 1
  27   14   36 1
  28   14   37 1
  29   15   16 ar
  30   15   20 ar
  31   16   17 ar
  32   16   38 1
  33   17   18 ar
  34   17   39 1
  35   18   19 ar
  36   18   40 1
  37   19   20 ar
  38   19   21 1
  39   20   41 1
  40   21   22 am
  41   21   42 1
  42   22   23 1
  43   22   24 2
  44   23   43 1
  45   23   44 1
  46   23   45 1

#	End of record

