#	Name: ASD06340054
#	Creating user name:	WinNT
#	Creation time:	15. 06. 2019 21:06

#	Modifying user name:	WinNT
#	Modification time:	15. 06. 2019 21:06

#	Program:	/corina/corina34_cracker 3.40 0067  02.08.2006

@<TRIPOS>MOLECULE
ASD06340054
  35   37    0    0    0
SMALL
NO_CHARGES


@<TRIPOS>ATOM
   1 S1            -0.0210     1.6939     0.0114 S.3     
   2 N2             0.0021    -0.0041     0.0020 N.am    
   3 C3             1.2962    -0.3594    -0.0122 C.2     
   4 N4             2.1856     0.6226    -0.0155 N.am    
   5 C5             1.6912     1.8721    -0.0040 C.2     
   6 O6             1.6365    -1.5276    -0.0214 O.2     
   7 O7             2.3224     2.9128    -0.0052 O.2     
   8 C8             3.6269     0.3610    -0.0302 C.3     
   9 C9             4.1080     0.2785    -1.4559 C.ar    
  10 C10            4.5425     1.4186    -2.1058 C.ar    
  11 C11            4.9837     1.3430    -3.4137 C.ar    
  12 C12            4.9909     0.1272    -4.0715 C.ar    
  13 C13            4.5573    -1.0130    -3.4213 C.ar    
  14 C14            4.1201    -0.9381    -2.1121 C.ar    
  15 C15            5.4710     0.0450    -5.4976 C.3     
  16 C16           -1.1035    -0.8590     0.0084 C.ar    
  17 C17           -2.3257    -0.4204    -0.4857 C.ar    
  18 C18           -3.4161    -1.2678    -0.4779 C.ar    
  19 C19           -3.2926    -2.5515     0.0215 C.ar    
  20 C20           -2.0775    -2.9914     0.5141 C.ar    
  21 C21           -0.9815    -2.1513     0.5036 C.ar    
  22 H22            4.1482     1.1691     0.4830 H       
  23 H23            3.8302    -0.5822     0.4770 H       
  24 H24            4.5369     2.3685    -1.5919 H       
  25 H25            5.3225     2.2338    -3.9216 H       
  26 H26            4.5625    -1.9628    -3.9354 H       
  27 H27            3.7848    -1.8296    -1.6029 H       
  28 H28            6.5435    -0.1490    -5.5093 H       
  29 H29            4.9500    -0.7636    -6.0103 H       
  30 H30            5.2667     0.9879    -6.0047 H       
  31 H31           -2.4230     0.5822    -0.8752 H       
  32 H32           -4.3664    -0.9275    -0.8618 H       
  33 H33           -4.1471    -3.2119     0.0271 H       
  34 H34           -1.9847    -3.9944     0.9037 H       
  35 H35           -0.0317    -2.4971     0.8840 H       
@<TRIPOS>BOND
   1    1    2 1
   2    1    5 1
   3    2    3 am
   4    2   16 1
   5    3    4 am
   6    3    6 2
   7    4    5 am
   8    4    8 1
   9    5    7 2
  10    8    9 1
  11    8   22 1
  12    8   23 1
  13    9   10 ar
  14    9   14 ar
  15   10   11 ar
  16   10   24 1
  17   11   12 ar
  18   11   25 1
  19   12   13 ar
  20   12   15 1
  21   13   14 ar
  22   13   26 1
  23   14   27 1
  24   15   28 1
  25   15   29 1
  26   15   30 1
  27   16   17 ar
  28   16   21 ar
  29   17   18 ar
  30   17   31 1
  31   18   19 ar
  32   18   32 1
  33   19   20 ar
  34   19   33 1
  35   20   21 ar
  36   20   34 1
  37   21   35 1

#	End of record

