#	Name: ASD01140733
#	Creating user name:	WinNT
#	Creation time:	15. 06. 2019 19:01

#	Modifying user name:	WinNT
#	Modification time:	15. 06. 2019 19:01

#	Program:	/corina/corina34_cracker 3.40 0067  02.08.2006

@<TRIPOS>MOLECULE
ASD01140733
  53   56    0    0    0
SMALL
NO_CHARGES


@<TRIPOS>ATOM
   1 C1            -0.0184     1.5028     0.0103 C.3     
   2 C2             0.0021    -0.0041     0.0020 C.2     
   3 O3             0.0086    -0.7986    -1.0777 O.3     
   4 N4             0.0264    -1.9689    -0.7746 N.2     
   5 C5             0.0343    -2.1265     0.5255 C.2     
   6 C6             0.0234    -0.8174     1.0824 C.2     
   7 C7             0.0319    -0.4275     2.5381 C.3     
   8 O8            -1.3125    -0.3232     3.0111 O.3     
   9 C9            -1.4824     0.0219     4.3104 C.ar    
  10 C10           -2.7692     0.1331     4.8276 C.ar    
  11 C11           -2.9360     0.4848     6.1515 C.ar    
  12 C12           -1.7917     0.7178     6.9282 C.ar    
  13 C13           -0.5344     0.5860     6.3370 C.ar    
  14 N14           -0.4211     0.2431     5.0711 N.ar    
  15 C15           -1.9153     1.0970     8.3494 C.2     
  16 O16           -3.0152     1.2096     8.8551 O.2     
  17 N17           -0.8089     1.3185     9.0864 N.am    
  18 C18           -0.9316     1.6949    10.4969 C.3     
  19 C19           -1.0593     0.4325    11.3549 C.3     
  20 C20           -1.1076     0.8315    12.8321 C.3     
  21 O21            0.0673     1.5752    13.1620 O.3     
  22 C22            0.2149     2.7902    12.4245 C.3     
  23 C23            0.3164     2.4698    10.9309 C.3     
  24 C24            0.0556    -3.4119     1.2683 C.ar    
  25 C25           -0.4350    -4.5751     0.6722 C.ar    
  26 C26           -0.3922    -5.7499     1.4090 C.ar    
  27 C27            0.1343    -5.6973     2.6904 C.ar    
  28 C28            0.2015    -6.9479     3.5287 C.3     
  29 N29            0.5773    -4.5527     3.1768 N.ar    
  30 N30            0.5462    -3.4623     2.5004 N.ar    
  31 H31            1.0042     1.8801     0.0026 H       
  32 H32           -0.5455     1.8639    -0.8728 H       
  33 H33           -0.5286     1.8543     0.9071 H       
  34 H34            0.5620    -1.1859     3.1143 H       
  35 H35            0.5335     0.5332     2.6540 H       
  36 H36           -3.6280    -0.0534     4.1998 H       
  37 H37           -3.9234     0.5787     6.5789 H       
  38 H38            0.3542     0.7628     6.9248 H       
  39 H39            0.0686     1.2287     8.6830 H       
  40 H40           -1.8142     2.3200    10.6321 H       
  41 H41           -1.9748    -0.0967    11.0904 H       
  42 H42           -0.1999    -0.2150    11.1805 H       
  43 H43           -1.9895     1.4457    13.0141 H       
  44 H44           -1.1554    -0.0654    13.4496 H       
  45 H45           -0.6497     3.4300    12.6011 H       
  46 H46            1.1199     3.3043    12.7483 H       
  47 H47            1.2036     1.8636    10.7479 H       
  48 H48            0.3848     3.3978    10.3631 H       
  49 H49           -0.8355    -4.5608    -0.3307 H       
  50 H50           -0.7587    -6.6783     0.9965 H       
  51 H51            1.1527    -7.4511     3.3549 H       
  52 H52            0.1176    -6.6836     4.5828 H       
  53 H53           -0.6170    -7.6134     3.2546 H       
@<TRIPOS>BOND
   1    1    2 1
   2    1   31 1
   3    1   32 1
   4    1   33 1
   5    2    6 2
   6    2    3 1
   7    3    4 1
   8    4    5 2
   9    5    6 1
  10    5   24 1
  11    6    7 1
  12    7    8 1
  13    7   34 1
  14    7   35 1
  15    8    9 1
  16    9   14 ar
  17    9   10 ar
  18   10   11 ar
  19   10   36 1
  20   11   12 ar
  21   11   37 1
  22   12   13 ar
  23   12   15 1
  24   13   14 ar
  25   13   38 1
  26   15   16 2
  27   15   17 am
  28   17   18 1
  29   17   39 1
  30   18   23 1
  31   18   19 1
  32   18   40 1
  33   19   20 1
  34   19   41 1
  35   19   42 1
  36   20   21 1
  37   20   43 1
  38   20   44 1
  39   21   22 1
  40   22   23 1
  41   22   45 1
  42   22   46 1
  43   23   47 1
  44   23   48 1
  45   24   30 ar
  46   24   25 ar
  47   25   26 ar
  48   25   49 1
  49   26   27 ar
  50   26   50 1
  51   27   28 1
  52   27   29 ar
  53   28   51 1
  54   28   52 1
  55   28   53 1
  56   29   30 ar

#	End of record

