#	Name: ASD06130006
#	Creating user name:	WinNT
#	Creation time:	15. 06. 2019 21:05

#	Modifying user name:	WinNT
#	Modification time:	15. 06. 2019 21:05

#	Program:	/corina/corina34_cracker 3.40 0067  02.08.2006

@<TRIPOS>MOLECULE
ASD06130006
  55   59    0    0    0
SMALL
NO_CHARGES


@<TRIPOS>ATOM
   1 C1            -0.0183     1.4971     0.0103 C.3     
   2 C2             0.0021    -0.0041     0.0020 C.2     
   3 C3            -0.3180    -0.8677    -0.9775 C.2     
   4 C4            -0.7867    -0.2806    -2.2391 C.2     
   5 C5            -1.0952     1.1775    -2.2139 C.2     
   6 C6            -0.7399     2.0035    -1.2198 C.2     
   7 C7            -0.6768     1.8699     1.3342 C.3     
   8 O8            -0.1544     1.1429     2.4755 O.3     
   9 C9             0.6725     0.0682     2.3408 C.2     
  10 C10            0.3631    -0.7598     1.1560 C.2     
  11 O11           -0.9138    -0.9563    -3.2464 O.2     
  12 C12           -0.9582     3.4969    -1.2967 C.3     
  13 C13           -1.8475     1.7047    -3.3883 C.3     
  14 C14           -1.3704     3.1421    -3.7011 C.3     
  15 C15           -1.7642     3.9760    -2.5044 C.3     
  16 C16           -1.6487     1.0146    -4.7386 C.3     
  17 C17           -2.1020     2.1063    -5.7487 C.3     
  18 C18           -2.0686     3.4367    -5.0012 C.2     
  19 O19           -2.5070     4.4979    -5.3669 O.2     
  20 C20            0.1407     3.1902    -3.9241 C.3     
  21 C21            1.4254     2.0124    -0.0007 C.3     
  22 C22            0.2999    -2.0517     0.7771 C.2     
  23 O23           -0.1117    -2.1023    -0.5161 O.3     
  24 O24            1.5676    -0.1800     3.1140 O.2     
  25 C25           -2.8648     1.9851     2.5000 C.2     
  26 O26           -3.8236     2.7145     2.4168 O.2     
  27 C27           -2.1653     1.5147     1.2507 C.3     
  28 C28           -3.3587     6.3570    -0.4130 C.3     
  29 O29           -1.9582     6.2139    -0.6583 O.3     
  30 C30           -1.3015     5.3098     0.2324 C.3     
  31 O31           -1.6290     3.9659    -0.1260 O.3     
  32 H32           -0.5608     2.9241     1.5221 H       
  33 H33            0.0195     3.9892    -1.3274 H       
  34 H34           -2.9190     1.7188    -3.1486 H       
  35 H35           -2.8318     3.8599    -2.3026 H       
  36 H36           -1.5485     5.0302    -2.6963 H       
  37 H37           -0.6088     0.7384    -4.8995 H       
  38 H38           -2.2901     0.1330    -4.8184 H       
  39 H39           -1.4193     2.1366    -6.5980 H       
  40 H40           -3.1150     1.8968    -6.0933 H       
  41 H41            0.4048     2.5471    -4.7637 H       
  42 H42            0.4434     4.2145    -4.1417 H       
  43 H43            0.6518     2.8433    -3.0260 H       
  44 H44            1.9318     1.6553    -0.8975 H       
  45 H45            1.4223     3.1024     0.0051 H       
  46 H46            1.9488     1.6458     0.8823 H       
  47 H47            0.5332    -2.9080     1.3940 H       
  48 H48           -2.5085     1.6699     3.4696 H       
  49 H49           -2.6070     2.0022     0.3816 H       
  50 H50           -2.2764     0.4345     1.1570 H       
  51 H51           -3.8471     5.3885    -0.5199 H       
  52 H52           -3.5139     6.7325     0.5985 H       
  53 H53           -3.7834     7.0593    -1.1303 H       
  54 H54           -0.2229     5.4516     0.1640 H       
  55 H55           -1.6293     5.5036     1.2537 H       
@<TRIPOS>BOND
   1    1    2 1
   2    1   21 1
   3    1    6 1
   4    1    7 1
   5    2    3 2
   6    2   10 1
   7    3    4 1
   8    3   23 1
   9    4    5 1
  10    4   11 2
  11    5    6 2
  12    5   13 1
  13    6   12 1
  14    7    8 1
  15    7   27 1
  16    7   32 1
  17    8    9 1
  18    9   10 1
  19    9   24 2
  20   10   22 2
  21   12   31 1
  22   12   15 1
  23   12   33 1
  24   13   14 1
  25   13   16 1
  26   13   34 1
  27   14   15 1
  28   14   20 1
  29   14   18 1
  30   15   35 1
  31   15   36 1
  32   16   17 1
  33   16   37 1
  34   16   38 1
  35   17   18 1
  36   17   39 1
  37   17   40 1
  38   18   19 2
  39   20   41 1
  40   20   42 1
  41   20   43 1
  42   21   44 1
  43   21   45 1
  44   21   46 1
  45   22   23 1
  46   22   47 1
  47   25   26 2
  48   25   27 1
  49   25   48 1
  50   27   49 1
  51   27   50 1
  52   28   29 1
  53   28   51 1
  54   28   52 1
  55   28   53 1
  56   29   30 1
  57   30   31 1
  58   30   54 1
  59   30   55 1

#	End of record

