#	Name: ASD07030038
#	Creating user name:	WinNT
#	Creation time:	15. 06. 2019 21:08

#	Modifying user name:	WinNT
#	Modification time:	15. 06. 2019 21:08

#	Program:	/corina/corina34_cracker 3.40 0067  02.08.2006

@<TRIPOS>MOLECULE
ASD07030038
  21   22    0    0    0
SMALL
NO_CHARGES


@<TRIPOS>ATOM
   1 C1            -0.0167     1.3790     0.0096 C.ar    
   2 C2             0.0021    -0.0041     0.0020 C.ar    
   3 C3             1.2084    -0.6786    -0.0131 C.ar    
   4 C4             2.3961     0.0288    -0.0207 C.ar    
   5 C5             2.3778     1.4111    -0.0131 C.ar    
   6 C6             1.1720     2.0865     0.0021 C.ar    
   7 C7             3.7111    -0.7070    -0.0367 C.3     
   8 C8             4.6479    -0.4539    -1.2195 C.3     
   9 C9             4.9847     0.1179     0.1590 C.3     
  10 N10            5.4516    -1.5810    -1.6991 N.pl3   
  11 O11            5.3309    -1.9703    -2.8469 O.2     
  12 O12            6.2406    -2.1287    -0.9501 O.2     
  13 Br13          -1.6668     2.3025     0.0224 Br      
  14 H14           -0.9257    -0.5568     0.0083 H       
  15 H15            1.2231    -1.7585    -0.0187 H       
  16 H16            3.3059     1.9634    -0.0190 H       
  17 H17            1.1578     3.1664     0.0077 H       
  18 H18            3.6927    -1.7121     0.3847 H       
  19 H19            4.3131     0.2449    -1.9862 H       
  20 H20            4.8714     1.1929     0.2994 H       
  21 H21            5.8042    -0.3445     0.7092 H       
@<TRIPOS>BOND
   1    1    2 ar
   2    1    6 ar
   3    1   13 1
   4    2    3 ar
   5    2   14 1
   6    3    4 ar
   7    3   15 1
   8    4    5 ar
   9    4    7 1
  10    5    6 ar
  11    5   16 1
  12    6   17 1
  13    7    8 1
  14    7    9 1
  15    7   18 1
  16    8    9 1
  17    8   10 1
  18    8   19 1
  19    9   20 1
  20    9   21 1
  21   10   11 2
  22   10   12 2

#	End of record

