#	Name: ASD04230043
#	Creating user name:	WinNT
#	Creation time:	15. 06. 2019 20:48

#	Modifying user name:	WinNT
#	Modification time:	15. 06. 2019 20:48

#	Program:	/corina/corina34_cracker 3.40 0067  02.08.2006

@<TRIPOS>MOLECULE
ASD04230043
  30   32    0    0    0
SMALL
NO_CHARGES


@<TRIPOS>ATOM
   1 N1            -0.0169     1.3927     0.0097 N.pl3   
   2 C2             0.0021    -0.0041     0.0020 C.ar    
   3 C3             1.2125    -0.6815    -0.0132 C.ar    
   4 C4             1.2262    -2.0737    -0.0203 C.ar    
   5 C5             0.0236    -2.7790    -0.0121 C.ar    
   6 C6            -1.1768    -2.0976     0.0025 C.ar    
   7 C7            -1.1916    -0.7155     0.0154 C.ar    
   8 C8             2.5217    -4.1870    -0.0440 C.ar    
   9 C9             2.5170    -2.8047    -0.0370 C.ar    
  10 C10            3.7234    -2.0866    -0.0461 C.ar    
  11 C11            4.9186    -2.7320    -0.0615 C.ar    
  12 C12            4.9580    -4.1376    -0.0685 C.ar    
  13 C13            6.1813    -4.8289    -0.0840 C.ar    
  14 C14            6.1869    -6.1900    -0.0900 C.ar    
  15 C15            4.9954    -6.9130    -0.0810 C.ar    
  16 C16            3.7916    -6.2786    -0.0659 C.ar    
  17 C17            3.7457    -4.8730    -0.0594 C.ar    
  18 H18            0.8165     1.8891     0.0044 H       
  19 H19           -0.8634     1.8662     0.0163 H       
  20 H20            2.1414    -0.1307    -0.0198 H       
  21 H21            0.0312    -3.8590    -0.0176 H       
  22 H22           -2.1072    -2.6460     0.0085 H       
  23 H23           -2.1334    -0.1871     0.0317 H       
  24 H24            1.5909    -4.7345    -0.0328 H       
  25 H25            3.7009    -1.0069    -0.0412 H       
  26 H26            5.8382    -2.1657    -0.0687 H       
  27 H27            7.1130    -4.2827    -0.0916 H       
  28 H28            7.1290    -6.7179    -0.1023 H       
  29 H29            5.0279    -7.9925    -0.0863 H       
  30 H30            2.8761    -6.8516    -0.0594 H       
@<TRIPOS>BOND
   1    1    2 1
   2    1   18 1
   3    1   19 1
   4    2    3 ar
   5    2    7 ar
   6    3    4 ar
   7    3   20 1
   8    4    5 ar
   9    4    9 1
  10    5    6 ar
  11    5   21 1
  12    6    7 ar
  13    6   22 1
  14    7   23 1
  15    8    9 ar
  16    8   17 ar
  17    8   24 1
  18    9   10 ar
  19   10   11 ar
  20   10   25 1
  21   11   12 ar
  22   11   26 1
  23   12   13 ar
  24   12   17 ar
  25   13   14 ar
  26   13   27 1
  27   14   15 ar
  28   14   28 1
  29   15   16 ar
  30   15   29 1
  31   16   17 ar
  32   16   30 1

#	End of record

