#	Name: ASD01948251
#	Creating user name:	WinNT
#	Creation time:	15. 06. 2019 20:14

#	Modifying user name:	WinNT
#	Modification time:	15. 06. 2019 20:14

#	Program:	/corina/corina34_cracker 3.40 0067  02.08.2006

@<TRIPOS>MOLECULE
ASD01948251
  38   42    0    0    0
SMALL
NO_CHARGES


@<TRIPOS>ATOM
   1 C1            -0.0167     1.3797     0.0096 C.ar    
   2 C2             0.0021    -0.0041     0.0020 C.ar    
   3 C3             1.2076    -0.6821    -0.0131 C.ar    
   4 C4             2.3976     0.0201    -0.0207 C.ar    
   5 C5             2.3837     1.4076    -0.0131 C.ar    
   6 C6             1.1708     2.0879     0.0021 C.ar    
   7 C7             4.0362     2.4136    -2.5218 C.ar    
   8 C8             4.2822     2.5447    -1.1564 C.ar    
   9 N9             3.5900     2.1223    -0.0203 N.am    
  10 C10            4.9160     2.9449    -3.4404 C.ar    
  11 C11            6.0620     3.6191    -3.0024 C.ar    
  12 C12            6.3119     3.7522    -1.6301 C.ar    
  13 C13            5.4190     3.2133    -0.7094 C.ar    
  14 N14            5.3864     3.1784     0.6851 N.am    
  15 C15            4.2775     2.5179     1.0673 C.2     
  16 O16            3.9470     2.3101     2.2200 O.2     
  17 Br17          -1.6237    -0.9699     0.0130 Br      
  18 F18            4.6727     2.8145    -4.7629 F       
  19 F19            1.1528     3.4388     0.0091 F       
  20 F20            2.9337     1.7586    -2.9469 F       
  21 O21            7.4721     4.4379    -1.5215 O.3     
  22 C22            7.9131     4.7123    -2.7595 C.2     
  23 N23            7.0916     4.2355    -3.6451 N.2     
  24 S24            6.5193     3.8370     1.6976 S.o2    
  25 C25            5.9349     5.5290     1.9913 C.3     
  26 O26            6.4208     3.0624     2.8848 O.2     
  27 O27            7.7133     3.8486     0.9273 O.2     
  28 C28            6.8364     6.4558     2.8093 C.3     
  29 C29            6.6896     6.6669     1.3011 C.3     
  30 H30           -0.9594     1.9066     0.0169 H       
  31 H31            1.2188    -1.7620    -0.0187 H       
  32 H32            3.3381    -0.5107    -0.0321 H       
  33 H33            8.8207     5.2520    -2.9863 H       
  34 H34            4.8572     5.6399     2.1120 H       
  35 H35            6.3519     7.1767     3.4679 H       
  36 H36            7.7807     6.0489     3.1710 H       
  37 H37            7.5373     6.3988     0.6705 H       
  38 H38            6.1085     7.5266     0.9674 H       
@<TRIPOS>BOND
   1    1    2 ar
   2    1    6 ar
   3    1   30 1
   4    2    3 ar
   5    2   17 1
   6    3    4 ar
   7    3   31 1
   8    4    5 ar
   9    4   32 1
  10    5    6 ar
  11    5    9 1
  12    6   19 1
  13    7    8 ar
  14    7   10 ar
  15    7   20 1
  16    8    9 1
  17    8   13 ar
  18    9   15 am
  19   10   11 ar
  20   10   18 1
  21   11   12 ar
  22   11   23 1
  23   12   13 ar
  24   12   21 1
  25   13   14 1
  26   14   24 am
  27   14   15 am
  28   15   16 2
  29   21   22 1
  30   22   23 2
  31   22   33 1
  32   24   25 1
  33   24   26 2
  34   24   27 2
  35   25   28 1
  36   25   29 1
  37   25   34 1
  38   28   29 1
  39   28   35 1
  40   28   36 1
  41   29   37 1
  42   29   38 1

#	End of record

