#	Name: ASD05060071
#	Creating user name:	WinNT
#	Creation time:	15. 06. 2019 20:56

#	Modifying user name:	WinNT
#	Modification time:	15. 06. 2019 20:56

#	Program:	/corina/corina34_cracker 3.40 0067  02.08.2006

@<TRIPOS>MOLECULE
ASD05060071
  62   64    0    0    0
SMALL
NO_CHARGES


@<TRIPOS>ATOM
   1 C1            -0.0168     1.3866     0.0097 C.ar    
   2 C2             0.0021    -0.0041     0.0020 C.ar    
   3 N3             1.1157     2.0789     0.0026 N.ar    
   4 C4             2.2933     1.4874    -0.0119 C.ar    
   5 C5             2.3979     0.1109    -0.0208 C.ar    
   6 C6             1.2328    -0.6625    -0.0133 C.ar    
   7 C7             1.3029    -2.1445    -0.0229 C.ar    
   8 C8             0.8384    -2.8735     1.0702 C.ar    
   9 C9             1.8282    -2.8123    -1.1276 C.ar    
  10 C10            1.8909    -4.1907    -1.1319 C.ar    
  11 C11            1.4330    -4.9102    -0.0413 C.ar    
  12 C12            0.9054    -4.2516     1.0563 C.ar    
  13 C13            3.7519    -0.5507    -0.0373 C.3     
  14 C14            4.3517    -0.4329    -1.4148 C.2     
  15 O15            4.6070     0.0907     0.9111 O.3     
  16 C16            5.5947    -0.7715     1.4794 C.3     
  17 O17            3.7705    -1.0509    -2.4550 O.3     
  18 O18            5.3558     0.2179    -1.5828 O.2     
  19 C19            6.4884    -1.3256     0.3680 C.3     
  20 C20            6.4482     0.0170     2.4747 C.3     
  21 C21            4.9050    -1.9292     2.2040 C.3     
  22 Cl22           1.5140    -6.6443    -0.0531 Cl      
  23 C23            3.5450     2.3266    -0.0193 C.3     
  24 C24           -1.2853    -0.7873     0.0106 C.3     
  25 C25           -1.3157     2.1034     0.0197 C.ar    
  26 C26           -1.4476     3.3019     0.7181 C.ar    
  27 C27           -2.4069     1.5835    -0.6742 C.ar    
  28 C28           -3.6126     2.2544    -0.6614 C.ar    
  29 C29           -3.7395     3.4411     0.0385 C.ar    
  30 C30           -2.6584     3.9645     0.7241 C.ar    
  31 C31           -2.8045     5.2573     1.4846 C.3     
  32 C32           -5.0589     4.1692     0.0487 C.3     
  33 H33            0.4271    -2.3605     1.9270 H       
  34 H34            2.1853    -2.2519    -1.9789 H       
  35 H35            2.2975    -4.7092    -1.9877 H       
  36 H36            0.5498    -4.8172     1.9048 H       
  37 H37            3.6450    -1.6036     0.2236 H       
  38 H38            4.1918    -0.9462    -3.3190 H       
  39 H39            6.9798    -0.5008    -0.1482 H       
  40 H40            7.2418    -1.9833     0.8015 H       
  41 H41            5.8803    -1.8873    -0.3411 H       
  42 H42            5.8115     0.4117     3.2665 H       
  43 H43            7.2015    -0.6407     2.9083 H       
  44 H44            6.9395     0.8417     1.9585 H       
  45 H45            4.2969    -2.4909     1.4949 H       
  46 H46            5.6583    -2.5869     2.6375 H       
  47 H47            4.2683    -1.5345     2.9958 H       
  48 H48            3.8566     2.5234     1.0065 H       
  49 H49            4.3374     1.7925    -0.5437 H       
  50 H50            3.3463     3.2709    -0.5262 H       
  51 H51           -1.6060    -0.9707    -1.0149 H       
  52 H52           -1.1281    -1.7393     0.5178 H       
  53 H53           -2.0531    -0.2186     0.5352 H       
  54 H54           -0.6041     3.7113     1.2541 H       
  55 H55           -2.3088     0.6574    -1.2211 H       
  56 H56           -4.4588     1.8526    -1.1990 H       
  57 H57           -3.1175     5.0442     2.5067 H       
  58 H58           -1.8484     5.7805     1.4990 H       
  59 H59           -3.5534     5.8824     0.9981 H       
  60 H60           -5.6598     3.8205     0.8887 H       
  61 H61           -4.8821     5.2401     0.1482 H       
  62 H62           -5.5891     3.9734    -0.8833 H       
@<TRIPOS>BOND
   1    1    2 ar
   2    1    3 ar
   3    1   25 1
   4    2   24 1
   5    2    6 ar
   6    3    4 ar
   7    4    5 ar
   8    4   23 1
   9    5    6 ar
  10    5   13 1
  11    6    7 1
  12    7    8 ar
  13    7    9 ar
  14    8   12 ar
  15    8   33 1
  16    9   10 ar
  17    9   34 1
  18   10   11 ar
  19   10   35 1
  20   11   12 ar
  21   11   22 1
  22   12   36 1
  23   13   14 1
  24   13   15 1
  25   13   37 1
  26   14   17 1
  27   14   18 2
  28   15   16 1
  29   16   19 1
  30   16   20 1
  31   16   21 1
  32   17   38 1
  33   19   39 1
  34   19   40 1
  35   19   41 1
  36   20   42 1
  37   20   43 1
  38   20   44 1
  39   21   45 1
  40   21   46 1
  41   21   47 1
  42   23   48 1
  43   23   49 1
  44   23   50 1
  45   24   51 1
  46   24   52 1
  47   24   53 1
  48   25   26 ar
  49   25   27 ar
  50   26   30 ar
  51   26   54 1
  52   27   28 ar
  53   27   55 1
  54   28   29 ar
  55   28   56 1
  56   29   30 ar
  57   29   32 1
  58   30   31 1
  59   31   57 1
  60   31   58 1
  61   31   59 1
  62   32   60 1
  63   32   61 1
  64   32   62 1

#	End of record

