#	Name: ASD03081316
#	Creating user name:	WinNT
#	Creation time:	15. 06. 2019 20:27

#	Modifying user name:	WinNT
#	Modification time:	15. 06. 2019 20:27

#	Program:	/corina/corina34_cracker 3.40 0067  02.08.2006

@<TRIPOS>MOLECULE
ASD03081316
  26   28    0    0    0
SMALL
NO_CHARGES


@<TRIPOS>ATOM
   1 O1            -0.0162     1.3444     0.0094 O.3     
   2 C2             0.0021    -0.0041     0.0020 C.2     
   3 N3             1.2608    -0.3805    -0.0120 N.2     
   4 N4             2.0178     0.6599    -0.0137 N.2     
   5 C5             1.2726     1.7416    -0.0007 C.2     
   6 C6             0.8548     4.2023     0.0165 C.ar    
   7 C7             1.7574     3.1373     0.0021 C.ar    
   8 C8             3.1297     3.4143    -0.0090 C.ar    
   9 C9             3.5315     4.7385    -0.0053 C.ar    
  10 C10            2.5741     5.7366     0.0092 C.ar    
  11 N11            1.2870     5.4461     0.0194 N.ar    
  12 C12           -1.1766    -0.8944     0.0089 C.ar    
  13 C13           -1.0084    -2.2817    -0.0002 C.ar    
  14 C14           -2.1145    -3.1080     0.0063 C.ar    
  15 C15           -3.3869    -2.5656     0.0218 C.ar    
  16 C16           -3.5608    -1.1919     0.0304 C.ar    
  17 C17           -2.4633    -0.3539     0.0304 C.ar    
  18 Cl18          -5.1621    -0.5217     0.0487 Cl      
  19 Cl19           0.5876    -2.9645    -0.0202 Cl      
  20 H20           -0.2069     4.0044     0.0207 H       
  21 H21            3.8561     2.6151    -0.0199 H       
  22 H22            4.5818     4.9901    -0.0133 H       
  23 H23            2.8851     6.7708     0.0121 H       
  24 H24           -1.9860    -4.1803    -0.0011 H       
  25 H25           -4.2487    -3.2165     0.0268 H       
  26 H26           -2.6003     0.7173     0.0420 H       
@<TRIPOS>BOND
   1    1    2 1
   2    1    5 1
   3    2    3 2
   4    2   12 1
   5    3    4 1
   6    4    5 2
   7    5    7 1
   8    6    7 ar
   9    6   11 ar
  10    6   20 1
  11    7    8 ar
  12    8    9 ar
  13    8   21 1
  14    9   10 ar
  15    9   22 1
  16   10   11 ar
  17   10   23 1
  18   12   13 ar
  19   12   17 ar
  20   13   14 ar
  21   13   19 1
  22   14   15 ar
  23   14   24 1
  24   15   16 ar
  25   15   25 1
  26   16   17 ar
  27   16   18 1
  28   17   26 1

#	End of record

