#	Name: ASD01814537
#	Creating user name:	WinNT
#	Creation time:	15. 06. 2019 19:32

#	Modifying user name:	WinNT
#	Modification time:	15. 06. 2019 19:32

#	Program:	/corina/corina34_cracker 3.40 0067  02.08.2006

@<TRIPOS>MOLECULE
ASD01814537
  57   62    0    0    0
SMALL
NO_CHARGES


@<TRIPOS>ATOM
   1 C1             0.2023     1.0512     0.0750 C.ar    
   2 C2             0.3309    -0.3170     0.2704 C.ar    
   3 C3            -0.7940    -1.1189     0.2962 C.ar    
   4 C4            -2.0476    -0.5610     0.1272 C.ar    
   5 C5            -2.1812     0.8017    -0.0682 C.ar    
   6 C6            -1.0606     1.6113    -0.0885 C.ar    
   7 F7            -1.1909     2.9425    -0.2790 F       
   8 N8             1.3408     1.8667     0.0484 N.am    
   9 C9             2.1073     2.0937    -1.0381 C.2     
  10 N10            1.8502     2.5727     1.1427 N.2     
  11 C11            2.9211     3.2359     0.7810 C.2     
  12 C12            3.1398     2.9599    -0.6416 C.2     
  13 O13            1.9359     1.6315    -2.1581 O.2     
  14 N14            3.7983     4.0764     1.4467 N.pl3   
  15 C15            4.8527     4.6338     0.7773 C.2     
  16 C16            5.0710     4.3713    -0.5890 C.2     
  17 C17            4.2361     3.5523    -1.2943 C.2     
  18 C18            3.6017     4.3411     2.7657 C.2     
  19 C19            4.4423     5.1586     3.4425 C.2     
  20 C20            5.5312     5.7443     2.7853 C.2     
  21 C21            5.7359     5.4843     1.4610 C.2     
  22 N22            6.1645     4.9637    -1.2379 N.pl3   
  23 C23            7.5399     4.6129    -0.8587 C.3     
  24 C24            5.9561     5.9423    -2.3139 C.3     
  25 C25            6.7391     5.4898    -3.5504 C.3     
  26 C26            8.2061     5.2763    -3.1703 C.3     
  27 C27            8.3019     4.1781    -2.1145 C.3     
  28 C28            8.9864     4.8639    -4.3919 C.ar    
  29 C29           10.3423     4.6135    -4.2939 C.ar    
  30 C30           11.0580     4.2352    -5.4144 C.ar    
  31 C31           10.4177     4.1069    -6.6328 C.ar    
  32 C32            9.0616     4.3565    -6.7306 C.ar    
  33 C33            8.3451     4.7306    -5.6092 C.ar    
  34 C34            8.7612     6.5299    -2.6343 C.1     
  35 N35            9.1896     7.4973    -2.2207 N.1     
  36 H36            1.3095    -0.7544     0.4019 H       
  37 H37           -0.6937    -2.1834     0.4482 H       
  38 H38           -2.9247    -1.1909     0.1476 H       
  39 H39           -3.1620     1.2342    -0.2003 H       
  40 H40            4.4164     3.3605    -2.3418 H       
  41 H41            2.7640     3.8937     3.2801 H       
  42 H42            4.2726     5.3595     4.4900 H       
  43 H43            6.2038     6.3970     3.3221 H       
  44 H44            6.5722     5.9298     0.9426 H       
  45 H45            8.0295     5.4805    -0.4163 H       
  46 H46            7.5231     3.7940    -0.1396 H       
  47 H47            4.8946     6.0002    -2.5547 H       
  48 H48            6.3139     6.9205    -1.9926 H       
  49 H49            6.3205     4.5554    -3.9243 H       
  50 H50            6.6713     6.2546    -4.3240 H       
  51 H51            9.3481     4.0086    -1.8597 H       
  52 H52            7.8688     3.2578    -2.5064 H       
  53 H53           10.8426     4.7137    -3.3420 H       
  54 H54           12.1175     4.0402    -5.3380 H       
  55 H55           10.9770     3.8121    -7.5084 H       
  56 H56            8.5614     4.2566    -7.6825 H       
  57 H57            7.2855     4.9255    -5.6855 H       
@<TRIPOS>BOND
   1    1    2 ar
   2    1    8 1
   3    1    6 ar
   4    2    3 ar
   5    2   36 1
   6    3    4 ar
   7    3   37 1
   8    4    5 ar
   9    4   38 1
  10    5    6 ar
  11    5   39 1
  12    6    7 1
  13    8    9 am
  14    8   10 1
  15    9   13 2
  16    9   12 1
  17   10   11 2
  18   11   12 1
  19   11   14 1
  20   12   17 2
  21   14   15 1
  22   14   18 1
  23   15   16 2
  24   15   21 1
  25   16   17 1
  26   16   22 1
  27   17   40 1
  28   18   19 2
  29   18   41 1
  30   19   20 1
  31   19   42 1
  32   20   21 2
  33   20   43 1
  34   21   44 1
  35   22   23 1
  36   22   24 1
  37   23   27 1
  38   23   45 1
  39   23   46 1
  40   24   25 1
  41   24   47 1
  42   24   48 1
  43   25   26 1
  44   25   49 1
  45   25   50 1
  46   26   27 1
  47   26   34 1
  48   26   28 1
  49   27   51 1
  50   27   52 1
  51   28   29 ar
  52   28   33 ar
  53   29   30 ar
  54   29   53 1
  55   30   31 ar
  56   30   54 1
  57   31   32 ar
  58   31   55 1
  59   32   33 ar
  60   32   56 1
  61   33   57 1
  62   34   35 3

#	End of record

