#	Name: ASD06350020
#	Creating user name:	WinNT
#	Creation time:	15. 06. 2019 21:06

#	Modifying user name:	WinNT
#	Modification time:	15. 06. 2019 21:06

#	Program:	/corina/corina34_cracker 3.40 0067  02.08.2006

@<TRIPOS>MOLECULE
ASD06350020
  62   67    0    0    0
SMALL
NO_CHARGES


@<TRIPOS>ATOM
   1 C1             0.2005    -2.1464    -1.2700 C.3     
   2 O2             0.8085    -3.3093    -0.7043 O.3     
   3 C3             1.3239    -3.1891     0.5478 C.ar    
   4 C4             1.9284    -4.2796     1.1562 C.ar    
   5 C5             2.4530    -4.1593     2.4280 C.ar    
   6 C6             2.3759    -2.9467     3.0989 C.ar    
   7 C7             1.7698    -1.8529     2.4892 C.ar    
   8 C8             1.2501    -1.9742     1.2141 C.ar    
   9 F9             1.6934    -0.6720     3.1409 F       
  10 N10            2.9078    -2.8243     4.3899 N.am    
  11 C11            4.2001    -2.4463     4.5457 C.2     
  12 C12            4.7516    -2.3171     5.7797 C.2     
  13 C13            3.9880    -2.5738     6.9179 C.2     
  14 C14            2.6580    -2.9625     6.7651 C.2     
  15 C15            2.1253    -3.0789     5.4558 C.2     
  16 O16            0.9651    -3.4167     5.2956 O.2     
  17 C17            1.8207    -3.2426     7.9411 C.2     
  18 O18            2.3141    -3.2425     9.0532 O.2     
  19 N19            0.5066    -3.4994     7.7869 N.am    
  20 C20           -0.2597    -3.9111     8.8840 C.ar    
  21 C21           -1.6057    -3.5783     8.9549 C.ar    
  22 C22           -2.3621    -3.9845    10.0372 C.ar    
  23 C23           -1.7781    -4.7251    11.0533 C.ar    
  24 C24           -0.4309    -5.0591    10.9839 C.ar    
  25 C25            0.3252    -4.6576     9.8988 C.ar    
  26 F26            0.1383    -5.7804    11.9744 F       
  27 O27           -2.5237    -5.1244    12.1184 O.3     
  28 C28           -2.4394    -4.4008    13.2612 C.ar    
  29 N29           -1.7436    -3.2677    13.2923 N.ar    
  30 C30           -1.6563    -2.5579    14.3991 C.ar    
  31 N31           -2.2473    -2.9334    15.5150 N.ar    
  32 C32           -2.9617    -4.0548    15.5650 C.ar    
  33 C33           -3.0836    -4.8294    14.4162 C.ar    
  34 O34           -3.5660    -4.4335    16.7161 O.3     
  35 N35           -3.3568    -3.5424    17.7965 N.pl3   
  36 N36           -2.6673    -2.4550    17.7562 N.2     
  37 N37           -2.6571    -1.8542    18.8941 N.2     
  38 C38           -3.3825    -2.5663    19.7772 C.ar    
  39 C39           -3.8575    -3.6847    19.0631 C.ar    
  40 C40           -4.6519    -4.6264    19.7076 C.ar    
  41 C41           -4.9652    -4.4598    21.0272 C.ar    
  42 C42           -4.4989    -3.3580    21.7345 C.ar    
  43 C43           -3.7203    -2.4168    21.1253 C.ar    
  44 H44            0.9368    -1.3452    -1.3321 H       
  45 H45           -0.1687    -2.3789    -2.2689 H       
  46 H46           -0.6305    -1.8282    -0.6405 H       
  47 H47            1.9884    -5.2235     0.6348 H       
  48 H48            2.9230    -5.0090     2.9008 H       
  49 H49            0.7794    -1.1258     0.7398 H       
  50 H50            4.8024    -2.2446     3.6722 H       
  51 H51            5.7838    -2.0153     5.8799 H       
  52 H52            4.4203    -2.4733     7.9025 H       
  53 H53            0.0917    -3.3989     6.9159 H       
  54 H54           -2.0615    -3.0014     8.1638 H       
  55 H55           -3.4089    -3.7246    10.0919 H       
  56 H56            1.3721    -4.9171     9.8440 H       
  57 H57           -1.0835    -1.6423    14.3912 H       
  58 H58           -3.6564    -5.7449    14.4237 H       
  59 H59           -5.0201    -5.4860    19.1673 H       
  60 H60           -5.5823    -5.1924    21.5261 H       
  61 H61           -4.7578    -3.2438    22.7767 H       
  62 H62           -3.3629    -1.5640    21.6833 H       
@<TRIPOS>BOND
   1    1    2 1
   2    1   44 1
   3    1   45 1
   4    1   46 1
   5    2    3 1
   6    3    4 ar
   7    3    8 ar
   8    4    5 ar
   9    4   47 1
  10    5    6 ar
  11    5   48 1
  12    6    7 ar
  13    6   10 1
  14    7    8 ar
  15    7    9 1
  16    8   49 1
  17   10   11 1
  18   10   15 am
  19   11   12 2
  20   11   50 1
  21   12   13 1
  22   12   51 1
  23   13   14 2
  24   13   52 1
  25   14   15 1
  26   14   17 1
  27   15   16 2
  28   17   18 2
  29   17   19 am
  30   19   20 1
  31   19   53 1
  32   20   21 ar
  33   20   25 ar
  34   21   22 ar
  35   21   54 1
  36   22   23 ar
  37   22   55 1
  38   23   24 ar
  39   23   27 1
  40   24   25 ar
  41   24   26 1
  42   25   56 1
  43   27   28 1
  44   28   29 ar
  45   28   33 ar
  46   29   30 ar
  47   30   31 ar
  48   30   57 1
  49   31   32 ar
  50   32   33 ar
  51   32   34 1
  52   33   58 1
  53   34   35 1
  54   35   36 1
  55   35   39 1
  56   36   37 2
  57   37   38 1
  58   38   39 ar
  59   38   43 ar
  60   39   40 ar
  61   40   41 ar
  62   40   59 1
  63   41   42 ar
  64   41   60 1
  65   42   43 ar
  66   42   61 1
  67   43   62 1

#	End of record

