#	Name: ASD01812963
#	Creating user name:	WinNT
#	Creation time:	15. 06. 2019 19:29

#	Modifying user name:	WinNT
#	Modification time:	15. 06. 2019 19:29

#	Program:	/corina/corina34_cracker 3.40 0067  02.08.2006

@<TRIPOS>MOLECULE
ASD01812963
  52   56    0    0    0
SMALL
NO_CHARGES


@<TRIPOS>ATOM
   1 C1            -0.0167     1.3793     0.0096 C.ar    
   2 C2             0.0021    -0.0041     0.0020 C.ar    
   3 C3             1.2122    -0.6875    -0.0128 C.ar    
   4 C4             2.3954     0.0084    -0.0204 C.ar    
   5 C5             2.3941     1.4073    -0.0133 C.ar    
   6 C6             1.1710     2.0933     0.0021 C.ar    
   7 C7             3.8432    -0.4151    -0.0361 C.3     
   8 N8             4.6313     0.8227    -0.0373 N.am    
   9 C9             3.7901     1.8709    -0.0241 C.2     
  10 C10            6.0941     0.9027    -0.0506 C.3     
  11 C11            6.5823     0.9373    -1.4759 C.ar    
  12 O12            1.1506     3.4497     0.0092 O.3     
  13 O13            4.1343     3.0372    -0.0215 O.2     
  14 C14            6.7404     2.1497    -2.1219 C.ar    
  15 C15            7.1877     2.1847    -3.4282 C.ar    
  16 C16            7.4786     1.0009    -4.0927 C.ar    
  17 C17            7.3189    -0.2148    -3.4415 C.ar    
  18 C18            6.8766    -0.2431    -2.1333 C.ar    
  19 N19            8.1376     2.1828    -6.1922 N.2     
  20 N20            7.9323     1.0331    -5.4187 N.pl3   
  21 C21            8.2501    -0.0403    -6.1774 C.2     
  22 C22            8.6431     0.4144    -7.3898 C.2     
  23 C23            8.5633     1.8112    -7.3726 C.2     
  24 F24           -1.1600    -0.6931     0.0095 F       
  25 C25           -0.1322     4.0791     0.0244 C.3     
  26 C26            0.0455     5.5988     0.0305 C.3     
  27 O27            0.6249     6.0252    -1.2081 O.3     
  28 C28           -0.2826     6.8980    -1.8996 C.3     
  29 C29           -1.1855     7.5008    -0.7941 C.3     
  30 C30           -1.3304     6.2864     0.1630 C.3     
  31 H31           -0.9603     1.9046     0.0170 H       
  32 H32            1.2216    -1.7674    -0.0180 H       
  33 H33            4.0712    -1.0038     0.8525 H       
  34 H34            4.0544    -0.9948    -0.9347 H       
  35 H35            6.4131     1.8086     0.4648 H       
  36 H36            6.5103     0.0314     0.4549 H       
  37 H37            6.5136     3.0702    -1.6045 H       
  38 H38            7.3106     3.1318    -3.9323 H       
  39 H39            7.5441    -1.1373    -3.9560 H       
  40 H40            6.7567    -1.1882    -1.6247 H       
  41 H41            8.1997    -1.0746    -5.8706 H       
  42 H42            8.9624    -0.1935    -8.2234 H       
  43 H43            8.8105     2.4695    -8.1924 H       
  44 H44           -0.6930     3.7824    -0.8619 H       
  45 H45           -0.6763     3.7734     0.9180 H       
  46 H46            0.6886     5.8925     0.8601 H       
  47 H47            0.2678     7.6877    -2.4110 H       
  48 H48           -0.8831     6.3320    -2.6117 H       
  49 H49           -0.6929     8.3364    -0.2968 H       
  50 H50           -2.1527     7.8009    -1.1972 H       
  51 H51           -2.1291     5.6234    -0.1697 H       
  52 H52           -1.5013     6.6178     1.1872 H       
@<TRIPOS>BOND
   1    1    2 ar
   2    1    6 ar
   3    1   31 1
   4    2    3 ar
   5    2   24 1
   6    3    4 ar
   7    3   32 1
   8    4    7 1
   9    4    5 ar
  10    5    6 ar
  11    5    9 1
  12    6   12 1
  13    7    8 1
  14    7   33 1
  15    7   34 1
  16    8    9 am
  17    8   10 1
  18    9   13 2
  19   10   11 1
  20   10   35 1
  21   10   36 1
  22   11   14 ar
  23   11   18 ar
  24   12   25 1
  25   14   15 ar
  26   14   37 1
  27   15   16 ar
  28   15   38 1
  29   16   17 ar
  30   16   20 1
  31   17   18 ar
  32   17   39 1
  33   18   40 1
  34   19   20 1
  35   19   23 2
  36   20   21 1
  37   21   22 2
  38   21   41 1
  39   22   23 1
  40   22   42 1
  41   23   43 1
  42   25   26 1
  43   25   44 1
  44   25   45 1
  45   26   27 1
  46   26   30 1
  47   26   46 1
  48   27   28 1
  49   28   29 1
  50   28   47 1
  51   28   48 1
  52   29   30 1
  53   29   49 1
  54   29   50 1
  55   30   51 1
  56   30   52 1

#	End of record

