#	Name: ASD03091612
#	Creating user name:	WinNT
#	Creation time:	15. 06. 2019 20:31

#	Modifying user name:	WinNT
#	Modification time:	15. 06. 2019 20:31

#	Program:	/corina/corina34_cracker 3.40 0067  02.08.2006

@<TRIPOS>MOLECULE
ASD03091612
  38   41    0    0    0
SMALL
NO_CHARGES


@<TRIPOS>ATOM
   1 C1            -0.0170     1.4028     0.0098 C.ar    
   2 C2             0.0021    -0.0041     0.0020 C.ar    
   3 C3             1.2260    -0.6651    -0.0128 C.ar    
   4 C4             2.3979     0.0612    -0.0196 C.ar    
   5 C5             2.3724     1.4492    -0.0115 C.ar    
   6 C6             1.1822     2.1198     0.0022 C.ar    
   7 O7            -1.2764    -0.4289     0.0119 O.3     
   8 C8            -2.1299     0.6162     0.0257 C.2     
   9 C9            -1.4299     1.7799     0.0311 C.2     
  10 C10           -3.5959     0.5109     0.0383 C.2     
  11 O11           -4.2780     1.5182     0.0499 O.2     
  12 N12           -4.1845    -0.7016     0.0371 N.am    
  13 N13           -6.8764    -1.9606     1.8243 N.3     
  14 C14           -6.1536    -0.7255     1.4922 C.3     
  15 C15           -5.6457    -0.8065     0.0497 C.3     
  16 C16           -6.0694    -2.1534    -0.5494 C.3     
  17 C17           -7.5992    -2.2526    -0.4969 C.3     
  18 C18           -8.0529    -2.1322     0.9607 C.3     
  19 C19           -5.9896    -3.1294     1.7432 C.3     
  20 C20           -5.4765    -3.2785     0.3082 C.3     
  21 Br21           1.2823    -2.5552    -0.0228 Br      
  22 H22            3.3462    -0.4555    -0.0311 H       
  23 H23            3.2998     2.0027    -0.0167 H       
  24 H24            1.1683     3.1997     0.0084 H       
  25 H25           -1.8346     2.7811     0.0423 H       
  26 H26           -3.6406    -1.5047     0.0279 H       
  27 H27           -6.8248     0.1272     1.5941 H       
  28 H28           -5.3078    -0.6059     2.1693 H       
  29 H29           -6.0772     0.0055    -0.5356 H       
  30 H30           -5.7240    -2.2304    -1.5803 H       
  31 H31           -8.0379    -1.4455    -1.0837 H       
  32 H32           -7.9169    -3.2142    -0.9000 H       
  33 H33           -8.5882    -3.0363     1.2508 H       
  34 H34           -8.7108    -1.2697     1.0668 H       
  35 H35           -5.1453    -2.9929     2.4190 H       
  36 H36           -6.5419    -4.0253     2.0269 H       
  37 H37           -5.7857    -4.2442    -0.0917 H       
  38 H38           -4.3887    -3.2092     0.3002 H       
@<TRIPOS>BOND
   1    1    2 ar
   2    1    6 ar
   3    1    9 1
   4    2    3 ar
   5    2    7 1
   6    3    4 ar
   7    3   21 1
   8    4    5 ar
   9    4   22 1
  10    5    6 ar
  11    5   23 1
  12    6   24 1
  13    7    8 1
  14    8    9 2
  15    8   10 1
  16    9   25 1
  17   10   11 2
  18   10   12 am
  19   12   15 1
  20   12   26 1
  21   13   14 1
  22   13   18 1
  23   13   19 1
  24   14   15 1
  25   14   27 1
  26   14   28 1
  27   15   16 1
  28   15   29 1
  29   16   17 1
  30   16   20 1
  31   16   30 1
  32   17   18 1
  33   17   31 1
  34   17   32 1
  35   18   33 1
  36   18   34 1
  37   19   20 1
  38   19   35 1
  39   19   36 1
  40   20   37 1
  41   20   38 1

#	End of record

