#	Name: ASD03330178
#	Creating user name:	WinNT
#	Creation time:	15. 06. 2019 20:36

#	Modifying user name:	WinNT
#	Modification time:	15. 06. 2019 20:36

#	Program:	/corina/corina34_cracker 3.40 0067  02.08.2006

@<TRIPOS>MOLECULE
ASD03330178
  49   52    0    0    0
SMALL
NO_CHARGES


@<TRIPOS>ATOM
   1 C1            -0.6009     0.6180    -2.9908 C.ar    
   2 C2            -1.9125     0.8591    -3.3638 C.ar    
   3 C3            -2.9509     0.3517    -2.6076 C.ar    
   4 C4            -2.6789    -0.4006    -1.4727 C.ar    
   5 C5            -1.3631    -0.6412    -1.1004 C.ar    
   6 C6            -0.3276    -0.1364    -1.8623 C.ar    
   7 N7            -3.7304    -0.9156    -0.7043 N.am    
   8 C8            -4.8853    -0.2293    -0.5964 C.2     
   9 N9            -5.9339    -0.7725     0.0531 N.am    
  10 O10           -4.9813     0.8799    -1.0852 O.2     
  11 C11           -7.0956    -0.0197     0.2593 C.ar    
  12 C12           -8.3340    -0.6429     0.2633 C.ar    
  13 C13           -9.4873     0.1103     0.4694 C.ar    
  14 C14           -9.3899     1.4861     0.6705 C.ar    
  15 C15           -8.1527     2.0991     0.6646 C.ar    
  16 C16           -7.0076     1.3517     0.4659 C.ar    
  17 C17          -10.8157    -0.5498     0.4744 C.ar    
  18 N18          -10.8992    -1.8609     0.2817 N.ar    
  19 C19          -11.9618     0.2099     0.6868 C.ar    
  20 C20          -13.1987    -0.4167     0.6901 C.ar    
  21 C21          -13.2493    -1.7839     0.4807 C.ar    
  22 C22          -12.0645    -2.4866     0.2794 C.ar    
  23 N23          -12.1071    -3.8597     0.0680 N.3     
  24 C24          -10.7514    -4.4073    -0.1222 C.3     
  25 C25          -10.5492    -5.5070     0.9413 C.3     
  26 C26          -12.0017    -5.9118     1.3061 C.3     
  27 C27          -12.7385    -4.5525     1.2113 C.3     
  28 F28            0.4134     1.1148    -3.7321 F       
  29 H29           -2.1236     1.4446    -4.2464 H       
  30 H30           -3.9737     0.5402    -2.8986 H       
  31 H31           -1.1495    -1.2259    -0.2179 H       
  32 H32            0.6961    -0.3234    -1.5731 H       
  33 H33           -3.6275    -1.7663    -0.2496 H       
  34 H34           -5.8834    -1.6852     0.3777 H       
  35 H35           -8.4043    -1.7091     0.1067 H       
  36 H36          -10.2824     2.0728     0.8305 H       
  37 H37           -8.0794     3.1654     0.8198 H       
  38 H38           -6.0422     1.8359     0.4625 H       
  39 H39          -11.8889     1.2754     0.8477 H       
  40 H40          -14.1035     0.1500     0.8530 H       
  41 H41          -14.1976    -2.3008     0.4779 H       
  42 H42          -10.6613    -4.8357    -1.1204 H       
  43 H43          -10.0107    -3.6193     0.0137 H       
  44 H44          -10.0069    -6.3542     0.5214 H       
  45 H45          -10.0295    -5.1093     1.8130 H       
  46 H46          -12.4016    -6.6239     0.5842 H       
  47 H47          -12.0526    -6.3138     2.3180 H       
  48 H48          -12.5968    -3.9794     2.1276 H       
  49 H49          -13.8003    -4.7088     1.0209 H       
@<TRIPOS>BOND
   1    1    2 ar
   2    1   28 1
   3    1    6 ar
   4    2    3 ar
   5    2   29 1
   6    3    4 ar
   7    3   30 1
   8    4    5 ar
   9    4    7 1
  10    5    6 ar
  11    5   31 1
  12    6   32 1
  13    7    8 am
  14    7   33 1
  15    8    9 am
  16    8   10 2
  17    9   11 1
  18    9   34 1
  19   11   12 ar
  20   11   16 ar
  21   12   13 ar
  22   12   35 1
  23   13   14 ar
  24   13   17 1
  25   14   15 ar
  26   14   36 1
  27   15   16 ar
  28   15   37 1
  29   16   38 1
  30   17   18 ar
  31   17   19 ar
  32   18   22 ar
  33   19   20 ar
  34   19   39 1
  35   20   21 ar
  36   20   40 1
  37   21   22 ar
  38   21   41 1
  39   22   23 1
  40   23   24 1
  41   23   27 1
  42   24   25 1
  43   24   42 1
  44   24   43 1
  45   25   26 1
  46   25   44 1
  47   25   45 1
  48   26   27 1
  49   26   46 1
  50   26   47 1
  51   27   48 1
  52   27   49 1

#	End of record

