#	Name: ASD01900098
#	Creating user name:	WinNT
#	Creation time:	15. 06. 2019 19:51

#	Modifying user name:	WinNT
#	Modification time:	15. 06. 2019 19:51

#	Program:	/corina/corina34_cracker 3.40 0067  02.08.2006

@<TRIPOS>MOLECULE
ASD01900098
  30   32    0    0    0
SMALL
NO_CHARGES


@<TRIPOS>ATOM
   1 O1             0.0255     1.4082     0.3620 O.3     
   2 N2             0.0455    -0.0051     0.3591 N.2     
   3 C3             1.2472    -0.4255     0.0727 C.2     
   4 C4             2.0876     0.7627    -0.1295 C.ar    
   5 C5             1.2563     1.8758     0.0675 C.ar    
   6 C6             1.7823     3.1552    -0.0601 C.ar    
   7 C7             3.1132     3.3265    -0.3786 C.ar    
   8 C8             3.9391     2.2317    -0.5749 C.ar    
   9 C9             3.4368     0.9484    -0.4523 C.ar    
  10 N10            1.6558    -1.7491    -0.0227 N.pl3   
  11 O11            4.2471    -0.1238    -0.6446 O.3     
  12 C12            5.6121     0.1449    -0.9713 C.3     
  13 C13            0.7178    -2.7795     0.0861 C.ar    
  14 C14           -0.5976    -2.5676    -0.3067 C.ar    
  15 C15           -1.5224    -3.5887    -0.1977 C.ar    
  16 C16           -1.1386    -4.8210     0.3029 C.ar    
  17 C17            0.1699    -5.0339     0.6949 C.ar    
  18 C18            1.1004    -4.0193     0.5821 C.ar    
  19 Cl19          -3.1668    -3.3257    -0.6882 Cl      
  20 H20            1.1482     4.0165     0.0898 H       
  21 H21            3.5155     4.3240    -0.4763 H       
  22 H22            4.9793     2.3805    -0.8245 H       
  23 H23            2.5921    -1.9586    -0.1649 H       
  24 H24            5.6581     0.7167    -1.8981 H       
  25 H25            6.0719     0.7190    -0.1670 H       
  26 H26            6.1474    -0.7961    -1.0980 H       
  27 H27           -0.8973    -1.6061    -0.6966 H       
  28 H28           -1.8630    -5.6176     0.3876 H       
  29 H29            0.4660    -5.9962     1.0856 H       
  30 H30            2.1234    -4.1882     0.8841 H       
@<TRIPOS>BOND
   1    1    2 1
   2    1    5 1
   3    2    3 2
   4    3    4 1
   5    3   10 1
   6    4    5 ar
   7    4    9 ar
   8    5    6 ar
   9    6    7 ar
  10    6   20 1
  11    7    8 ar
  12    7   21 1
  13    8    9 ar
  14    8   22 1
  15    9   11 1
  16   10   13 1
  17   10   23 1
  18   11   12 1
  19   12   24 1
  20   12   25 1
  21   12   26 1
  22   13   14 ar
  23   13   18 ar
  24   14   15 ar
  25   14   27 1
  26   15   16 ar
  27   15   19 1
  28   16   17 ar
  29   16   28 1
  30   17   18 ar
  31   17   29 1
  32   18   30 1

#	End of record

