#	Name: ASD01912242
#	Creating user name:	WinNT
#	Creation time:	15. 06. 2019 19:59

#	Modifying user name:	WinNT
#	Modification time:	15. 06. 2019 19:59

#	Program:	/corina/corina34_cracker 3.40 0067  02.08.2006

@<TRIPOS>MOLECULE
ASD01912242
  48   50    0    0    0
SMALL
NO_CHARGES


@<TRIPOS>ATOM
   1 C1            -0.3092     1.2054     0.2189 C.ar    
   2 C2            -0.3661    -0.1913     0.2089 C.ar    
   3 C3             0.8129    -0.9115     0.2675 C.ar    
   4 C4             2.0129    -0.2157     0.3343 C.ar    
   5 C5             1.9976     1.1671     0.3405 C.ar    
   6 N6             0.8621     1.8320     0.2839 N.ar    
   7 C7             3.2987     1.9240     0.4129 C.3     
   8 C8            -1.5202     1.9668     0.1528 C.1     
   9 C9            -2.5130     2.5910     0.0986 C.1     
  10 C10           -3.7240     3.3524     0.0325 C.2     
  11 N11           -3.6305     7.3286     0.9691 N.3     
  12 C12           -4.8822     6.5696     1.0828 C.3     
  13 C13           -4.9400     5.5137    -0.0271 C.3     
  14 C14           -3.6752     4.6838     0.0418 C.2     
  15 C15           -2.3530     5.4177     0.1220 C.3     
  16 C16           -2.4596     6.4797     1.2224 C.3     
  17 C17           -3.6384     8.4392     1.8205 C.ar    
  18 C18           -3.6121     9.7221     1.2893 C.ar    
  19 C19           -3.6198    10.8174     2.1302 C.ar    
  20 C20           -3.6534    10.6366     3.5051 C.ar    
  21 C21           -3.6797     9.3559     4.0364 C.ar    
  22 C22           -3.6783     8.2592     3.1966 C.ar    
  23 N23           -3.5752     9.9153    -0.1776 N.pl3   
  24 O24           -3.6509    11.0370    -0.6462 O.2     
  25 O25           -3.4692     8.9526    -0.9162 O.2     
  26 O26           -3.6602    11.7159     4.3326 O.3     
  27 C27           -3.6954    11.4562     5.7374 C.3     
  28 H28           -1.3171    -0.7006     0.1565 H       
  29 H29            0.8007    -1.9914     0.2618 H       
  30 H30            2.9502    -0.7501     0.3815 H       
  31 H31            3.6666     2.1117    -0.5958 H       
  32 H32            3.1388     2.8735     0.9238 H       
  33 H33            4.0319     1.3344     0.9632 H       
  34 H34           -4.6770     2.8474    -0.0249 H       
  35 H35           -4.9222     6.0779     2.0547 H       
  36 H36           -5.7293     7.2483     0.9833 H       
  37 H37           -5.8089     4.8724     0.1205 H       
  38 H38           -5.0053     6.0044    -0.9982 H       
  39 H39           -1.5565     4.7147     0.3656 H       
  40 H40           -2.1406     5.8981    -0.8331 H       
  41 H41           -1.5589     7.0936     1.2237 H       
  42 H42           -2.5678     5.9905     2.1905 H       
  43 H43           -3.5994    11.8152     1.7173 H       
  44 H44           -3.7059     9.2160     5.1070 H       
  45 H45           -3.7036     7.2619     3.6104 H       
  46 H46           -3.6971    12.4006     6.2815 H       
  47 H47           -4.5976    10.8950     5.9806 H       
  48 H48           -2.8182    10.8748     6.0215 H       
@<TRIPOS>BOND
   1    1    2 ar
   2    1    6 ar
   3    1    8 1
   4    2    3 ar
   5    2   28 1
   6    3    4 ar
   7    3   29 1
   8    4    5 ar
   9    4   30 1
  10    5    6 ar
  11    5    7 1
  12    7   31 1
  13    7   32 1
  14    7   33 1
  15    8    9 3
  16    9   10 1
  17   10   14 2
  18   10   34 1
  19   11   12 1
  20   11   16 1
  21   11   17 1
  22   12   13 1
  23   12   35 1
  24   12   36 1
  25   13   14 1
  26   13   37 1
  27   13   38 1
  28   14   15 1
  29   15   16 1
  30   15   39 1
  31   15   40 1
  32   16   41 1
  33   16   42 1
  34   17   18 ar
  35   17   22 ar
  36   18   19 ar
  37   18   23 1
  38   19   20 ar
  39   19   43 1
  40   20   21 ar
  41   20   26 1
  42   21   22 ar
  43   21   44 1
  44   22   45 1
  45   23   24 2
  46   23   25 2
  47   26   27 1
  48   27   46 1
  49   27   47 1
  50   27   48 1

#	End of record

