#	Name: ASD03200079
#	Creating user name:	WinNT
#	Creation time:	15. 06. 2019 20:34

#	Modifying user name:	WinNT
#	Modification time:	15. 06. 2019 20:34

#	Program:	/corina/corina34_cracker 3.40 0067  02.08.2006

@<TRIPOS>MOLECULE
ASD03200079
  22   23    0    0    0
SMALL
NO_CHARGES


@<TRIPOS>ATOM
   1 C1            -0.0184     1.5028     0.0103 C.3     
   2 C2             0.0182    -2.0662    -1.2152 C.ar    
   3 C3             0.0229    -0.6994     1.1978 C.ar    
   4 C4             0.0021    -0.0041     0.0020 C.ar    
   5 C5            -0.0005    -0.6865    -1.2013 C.ar    
   6 C6             0.0416    -2.0792     1.1965 C.ar    
   7 C7             0.0396    -2.7725    -0.0132 C.ar    
   8 C8             0.0592    -4.2545    -0.0214 C.2     
   9 F9             1.2941     1.9870     0.0004 F       
  10 F10           -0.6950     1.9662    -1.1231 F       
  11 F11           -0.6732     1.9539     1.1613 F       
  12 C12            0.7462    -4.9954     0.9211 C.2     
  13 N13            1.5010    -4.5264     1.9879 N.pl3   
  14 N14           -0.5830    -4.9698    -0.9265 N.2     
  15 N15           -0.5173    -6.2466    -0.8653 N.2     
  16 S16            0.4531    -6.6334     0.4732 S.3     
  17 H17            0.0117    -2.5980    -2.1552 H       
  18 H18            0.0248    -0.1613     2.1342 H       
  19 H19           -0.0168    -0.1384    -2.1317 H       
  20 H20            0.0575    -2.6210     2.1306 H       
  21 H21            1.5904    -3.5720     2.1362 H       
  22 H22            1.9388    -5.1531     2.5848 H       
@<TRIPOS>BOND
   1    1    4 1
   2    1    9 1
   3    1   10 1
   4    1   11 1
   5    2    5 ar
   6    2    7 ar
   7    2   17 1
   8    3    4 ar
   9    3    6 ar
  10    3   18 1
  11    4    5 ar
  12    5   19 1
  13    6    7 ar
  14    6   20 1
  15    7    8 1
  16    8   12 2
  17    8   14 1
  18   12   13 1
  19   12   16 1
  20   13   21 1
  21   13   22 1
  22   14   15 2
  23   15   16 1

#	End of record

