#	Name: ASD06590057
#	Creating user name:	WinNT
#	Creation time:	15. 06. 2019 21:06

#	Modifying user name:	WinNT
#	Modification time:	15. 06. 2019 21:06

#	Program:	/corina/corina34_cracker 3.40 0067  02.08.2006

@<TRIPOS>MOLECULE
ASD06590057
 231  234    0    0    0
SMALL
NO_CHARGES


@<TRIPOS>ATOM
   1 C1            -0.4531     4.5156     2.8712 C.2     
   2 O2            -0.2724     3.3283     3.0408 O.2     
   3 N3             1.9456     4.7214     3.1764 N.am    
   4 C4             0.7130     5.4691     2.9155 C.3     
   5 C5            -3.9294     4.6488     1.7485 C.2     
   6 O6            -3.7821     5.7404     1.2409 O.2     
   7 N7            -1.6960     4.9814     2.6375 N.am    
   8 C8            -2.8288     4.0537     2.5885 C.3     
   9 C9            -3.3467     3.8058     4.0066 C.3     
  10 O10           -3.8764     5.0213     4.5396 O.3     
  11 C11           -7.4711     3.9592     1.1620 C.2     
  12 O12           -7.5162     3.1381     2.0535 O.2     
  13 N13           -5.0775     3.9680     1.5615 N.am    
  14 C14           -6.1474     4.5466     0.7450 C.3     
  15 C15           -5.8912     4.2304    -0.7299 C.3     
  16 C16           -4.6098     4.9308    -1.1865 C.3     
  17 C17           -4.3574     4.6194    -2.6392 C.2     
  18 O18           -5.1238     3.9100    -3.2470 O.2     
  19 O19           -3.2813     5.1301    -3.2579 O.3     
  20 C20          -10.8616     3.8557    -0.2007 C.2     
  21 O21          -10.5125     4.3422    -1.2554 O.2     
  22 N22           -8.6047     4.3462     0.5443 N.am    
  23 C23           -9.8915     3.7752     0.9498 C.3     
  24 C24          -10.4456     4.5606     2.1401 C.3     
  25 C25           -9.5230     4.3765     3.3466 C.3     
  26 C26          -10.0771     5.1620     4.5370 C.3     
  27 C27           -9.1545     4.9779     5.7435 C.3     
  28 N28           -9.6865     5.7320     6.8864 N.3     
  29 C29          -14.4702     3.4760    -0.6441 C.2     
  30 O30          -14.6679     3.4234     0.5514 O.2     
  31 N31          -12.1171     3.3871    -0.0575 N.am    
  32 C32          -13.0602     3.4653    -1.1758 C.3     
  33 C33          -12.8690     2.2534    -2.0899 C.3     
  34 C34          -11.4793     2.3098    -2.7276 C.3     
  35 C35          -11.2881     1.0979    -3.6417 C.3     
  36 C36           -9.8985     1.1543    -4.2794 C.3     
  37 N37           -9.7149    -0.0093    -5.1571 N.3     
  38 C38          -17.8210     3.0280    -2.0350 C.2     
  39 O39          -17.3877     2.6787    -3.1126 O.2     
  40 N40          -15.5116     3.5440    -1.4970 N.am    
  41 C41          -16.8823     3.5543    -0.9801 C.3     
  42 C42          -17.2783     4.9860    -0.6134 C.3     
  43 C43          -16.4187     5.4686     0.5265 C.ar    
  44 C44          -15.2232     6.1121     0.2649 C.ar    
  45 C45          -14.4333     6.5551     1.3080 C.ar    
  46 C46          -14.8406     6.3542     2.6189 C.ar    
  47 O47          -14.0654     6.7895     3.6468 O.3     
  48 C48          -16.0407     5.7087     2.8787 C.ar    
  49 C49          -16.8296     5.2722     1.8320 C.ar    
  50 C50          -21.4196     3.1315    -2.5979 C.2     
  51 O51          -21.6417     3.7308    -1.5671 O.2     
  52 N52          -19.1420     2.9455    -1.7811 N.am    
  53 C53          -20.0649     2.5150    -2.8342 C.3     
  54 C54          -20.1878     0.9901    -2.8127 C.3     
  55 C55          -21.0499     0.5312    -3.9904 C.3     
  56 C56          -20.3612     0.9075    -5.3038 C.3     
  57 C57          -21.2334    -0.9864    -3.9272 C.3     
  58 C58          -24.7298     2.7821    -4.1090 C.2     
  59 O59          -24.3539     1.9123    -4.8659 O.2     
  60 N60          -22.3844     3.0169    -3.5320 N.am    
  61 C61          -23.7310     3.5260    -3.2605 C.3     
  62 C62          -23.7890     5.0180    -3.5945 C.3     
  63 C63          -22.8803     5.7772    -2.6623 C.2     
  64 C64          -23.2357     6.3829    -1.5183 C.2     
  65 N65          -22.1423     6.9696    -0.9417 N.pl3   
  66 C66          -21.0282     6.7502    -1.7205 C.ar    
  67 C67          -19.6911     7.1152    -1.6036 C.ar    
  68 C68          -18.7902     6.7333    -2.5737 C.ar    
  69 C69          -19.2030     5.9870    -3.6687 C.ar    
  70 C70          -20.5119     5.6180    -3.8037 C.ar    
  71 C71          -21.4404     5.9887    -2.8295 C.ar    
  72 C72          -28.3971     2.8840    -4.5723 C.2     
  73 O73          -28.5574     3.7738    -3.7639 O.2     
  74 N74          -26.0409     3.0834    -4.0267 N.am    
  75 C75          -27.0119     2.3602    -4.8515 C.3     
  76 C76          -31.8192     1.8071    -5.2740 C.2     
  77 O77          -31.4537     0.7285    -5.6910 O.2     
  78 N78          -29.4577     2.3636    -5.2209 N.am    
  79 C79          -30.8043     2.8728    -4.9495 C.3     
  80 C80          -31.0667     4.1073    -5.8143 C.3     
  81 C81          -30.1314     5.2156    -5.4048 C.ar    
  82 C82          -28.8960     5.3376    -6.0130 C.ar    
  83 C83          -28.0380     6.3543    -5.6373 C.ar    
  84 C84          -28.4155     7.2492    -4.6537 C.ar    
  85 C85          -29.6512     7.1277    -4.0461 C.ar    
  86 C86          -30.5110     6.1137    -4.4248 C.ar    
  87 C87          -34.4511     1.0694    -6.8856 C.2     
  88 O88          -33.9178     1.8883    -7.5962 O.2     
  89 N89          -33.1331     2.0527    -5.1009 N.am    
  90 C90          -34.1197     1.0167    -5.4164 C.3     
  91 C91          -35.3901     1.2561    -4.5981 C.3     
  92 C92          -35.0337     1.3267    -3.1119 C.3     
  93 O93          -35.9922     2.4873    -5.0026 O.3     
  94 O94          -35.3386     0.2066    -7.4048 O.3     
  95 C95            3.1233     5.3715     3.2593 C.2     
  96 O96            3.1628     6.5754     3.1179 O.2     
  97 C97           21.6892     5.9131     5.7497 C.3     
  98 C98           20.4020     6.6939     5.4773 C.3     
  99 C99           19.2181     5.7259     5.4323 C.3     
 100 C100          17.9309     6.5067     5.1598 C.3     
 101 C101          16.7469     5.5386     5.1149 C.3     
 102 C102          15.4597     6.3194     4.8424 C.3     
 103 C103          14.2758     5.3514     4.7974 C.3     
 104 C104          12.9886     6.1322     4.5250 C.3     
 105 C105          11.8046     5.1641     4.4800 C.3     
 106 C106          10.5174     5.9449     4.2075 C.3     
 107 C107           9.3335     4.9769     4.1625 C.3     
 108 C108           8.0463     5.7577     3.8901 C.3     
 109 C109           6.8623     4.7896     3.8451 C.3     
 110 C110           5.5751     5.5704     3.5726 C.3     
 111 C111           4.3912     4.6024     3.5276 C.3     
 112 H112           1.9140     3.7586     3.2894 H       
 113 H113           0.7968     5.9854     1.9592 H       
 114 H114           0.5557     6.1988     3.7098 H       
 115 H115          -1.8405     5.9310     2.5019 H       
 116 H116          -2.5065     3.1097     2.1491 H       
 117 H117          -4.1305     3.0488     3.9800 H       
 118 H118          -2.5280     3.4590     4.6370 H       
 119 H119          -4.2236     4.9384     5.4383 H       
 120 H120          -5.1953     3.0950     1.9675 H       
 121 H121          -6.1687     5.6271     0.8866 H       
 122 H122          -5.7815     3.1534    -0.8569 H       
 123 H123          -6.7311     4.5832    -1.3284 H       
 124 H124          -4.7195     6.0078    -1.0595 H       
 125 H125          -3.7699     4.5781    -0.5880 H       
 126 H126          -3.1615     4.9023    -4.1900 H       
 127 H127          -8.5686     5.0029    -0.1687 H       
 128 H128          -9.7524     2.7325     1.2355 H       
 129 H129         -10.5012     5.6185     1.8832 H       
 130 H130         -11.4422     4.1935     2.3854 H       
 131 H131          -9.4674     3.3187     3.6035 H       
 132 H132          -8.5264     4.7437     3.1013 H       
 133 H133         -10.1327     6.2198     4.2801 H       
 134 H134         -11.0737     4.7948     4.7823 H       
 135 H135          -9.0989     3.9200     6.0004 H       
 136 H136          -8.1579     5.3450     5.4982 H       
 137 H137          -9.0943     5.6265     7.6965 H       
 138 H138          -9.8083     6.7058     6.6519 H       
 139 H139         -12.3963     2.9980     0.7861 H       
 140 H140         -12.8782     4.3793    -1.7413 H       
 141 H141         -12.9635     1.3386    -1.5049 H       
 142 H142         -13.6283     2.2648    -2.8719 H       
 143 H143         -11.3849     3.2247    -3.3126 H       
 144 H144         -10.7200     2.2985    -1.9457 H       
 145 H145         -11.3826     0.1830    -3.0567 H       
 146 H146         -12.0474     1.1092    -4.4237 H       
 147 H147          -9.8040     2.0691    -4.8644 H       
 148 H148          -9.1392     1.1430    -3.4975 H       
 149 H149          -8.8039     0.0049    -5.5906 H       
 150 H150          -9.8615    -0.8702    -4.6516 H       
 151 H151         -15.3535     3.5860    -2.4531 H       
 152 H152         -16.9411     2.9227    -0.0936 H       
 153 H153         -17.1346     5.6352    -1.4770 H       
 154 H154         -18.3258     5.0075    -0.3129 H       
 155 H155         -14.9066     6.2683    -0.7558 H       
 156 H156         -13.4992     7.0571     1.1032 H       
 157 H157         -14.2617     7.6922     3.9326 H       
 158 H158         -16.3598     5.5507     3.8983 H       
 159 H159         -17.7661     4.7735     2.0336 H       
 160 H160         -19.4818     3.1712    -0.9010 H       
 161 H161         -19.6843     2.8352    -3.8041 H       
 162 H162         -19.1962     0.5446    -2.8929 H       
 163 H163         -20.6526     0.6762    -1.8781 H       
 164 H164         -22.0241     1.0175    -3.9387 H       
 165 H165         -19.4226     0.3602    -5.3916 H       
 166 H166         -21.0106     0.6517    -6.1409 H       
 167 H167         -20.1595     1.9786    -5.3144 H       
 168 H168         -21.7241    -1.2545    -2.9916 H       
 169 H169         -21.8476    -1.3134    -4.7663 H       
 170 H170         -20.2592    -1.4726    -3.9789 H       
 171 H171         -22.1872     2.5973    -4.3840 H       
 172 H172         -23.9691     3.3800    -2.2069 H       
 173 H173         -23.4651     5.1728    -4.6237 H       
 174 H174         -24.8115     5.3770    -3.4775 H       
 175 H175         -24.2366     6.4042    -1.1131 H       
 176 H176         -22.1508     7.4661    -0.1085 H       
 177 H177         -19.3603     7.6961    -0.7554 H       
 178 H178         -17.7525     7.0179    -2.4813 H       
 179 H179         -18.4841     5.6958    -4.4202 H       
 180 H180         -20.8259     5.0376    -4.6586 H       
 181 H181         -26.3416     3.7791    -3.4213 H       
 182 H182         -26.9705     1.2973    -4.6136 H       
 183 H183         -26.7738     2.5062    -5.9051 H       
 184 H184         -29.3295     1.6520    -5.8675 H       
 185 H185         -30.8852     3.1429    -3.8966 H       
 186 H186         -30.8990     3.8590    -6.8624 H       
 187 H187         -32.0979     4.4334    -5.6787 H       
 188 H188         -28.6011     4.6385    -6.7815 H       
 189 H189         -27.0726     6.4492    -6.1120 H       
 190 H190         -27.7449     8.0430    -4.3596 H       
 191 H191         -29.9460     7.8267    -3.2773 H       
 192 H192         -31.4779     6.0210    -3.9527 H       
 193 H193         -33.4254     2.9153    -4.7674 H       
 194 H194         -33.7090     0.0372    -5.1715 H       
 195 H195         -36.0898     0.4372    -4.7655 H       
 196 H196         -34.3340     2.1456    -2.9446 H       
 197 H197         -35.9388     1.4973    -2.5290 H       
 198 H198         -34.5744     0.3876    -2.8034 H       
 199 H199         -35.4249     3.2610    -4.8817 H       
 200 H200         -35.5187     0.2789    -8.3521 H       
 201 H201          21.6055     5.3968     6.7061 H       
 202 H202          21.8465     5.1834     4.9555 H       
 203 H203          22.5327     6.6028     5.7818 H       
 204 H204          20.2447     7.4237     6.2716 H       
 205 H205          20.4857     7.2102     4.5210 H       
 206 H206          19.3754     4.9961     4.6380 H       
 207 H207          19.1343     5.2096     6.3886 H       
 208 H208          17.7735     7.2364     5.9541 H       
 209 H209          18.0146     7.0230     4.2035 H       
 210 H210          16.9043     4.8089     4.3206 H       
 211 H211          16.6632     5.0223     6.0712 H       
 212 H212          15.3024     7.0492     5.6367 H       
 213 H213          15.5434     6.8357     3.8861 H       
 214 H214          14.4331     4.6216     4.0031 H       
 215 H215          14.1921     4.8351     5.7537 H       
 216 H216          12.8312     6.8619     5.3192 H       
 217 H217          13.0723     6.6485     3.5686 H       
 218 H218          11.9620     4.4344     3.6857 H       
 219 H219          11.7209     4.6478     5.4363 H       
 220 H220          10.3601     6.6747     5.0018 H       
 221 H221          10.6011     6.4612     3.2512 H       
 222 H222           9.4908     4.2471     3.3683 H       
 223 H223           9.2498     4.4606     5.1189 H       
 224 H224           7.8889     6.4874     4.6843 H       
 225 H225           8.1300     6.2740     2.9337 H       
 226 H226           7.0197     4.0599     3.0508 H       
 227 H227           6.7786     4.2733     4.8014 H       
 228 H228           5.4178     6.3002     4.3669 H       
 229 H229           5.6588     6.0867     2.6163 H       
 230 H230           4.3075     4.0861     4.4840 H       
 231 H231           4.5485     3.8726     2.7334 H       
@<TRIPOS>BOND
   1    1    2 2
   2    1    4 1
   3    1    7 am
   4    3    4 1
   5    3   95 am
   6    3  112 1
   7    4  113 1
   8    4  114 1
   9    5    6 2
  10    5    8 1
  11    5   13 am
  12    7    8 1
  13    7  115 1
  14    8    9 1
  15    8  116 1
  16    9   10 1
  17    9  117 1
  18    9  118 1
  19   10  119 1
  20   11   12 2
  21   11   14 1
  22   11   22 am
  23   13   14 1
  24   13  120 1
  25   14   15 1
  26   14  121 1
  27   15   16 1
  28   15  122 1
  29   15  123 1
  30   16   17 1
  31   16  124 1
  32   16  125 1
  33   17   18 2
  34   17   19 1
  35   19  126 1
  36   20   21 2
  37   20   23 1
  38   20   31 am
  39   22   23 1
  40   22  127 1
  41   23   24 1
  42   23  128 1
  43   24   25 1
  44   24  129 1
  45   24  130 1
  46   25   26 1
  47   25  131 1
  48   25  132 1
  49   26   27 1
  50   26  133 1
  51   26  134 1
  52   27   28 1
  53   27  135 1
  54   27  136 1
  55   28  137 1
  56   28  138 1
  57   29   30 2
  58   29   32 1
  59   29   40 am
  60   31   32 1
  61   31  139 1
  62   32   33 1
  63   32  140 1
  64   33   34 1
  65   33  141 1
  66   33  142 1
  67   34   35 1
  68   34  143 1
  69   34  144 1
  70   35   36 1
  71   35  145 1
  72   35  146 1
  73   36   37 1
  74   36  147 1
  75   36  148 1
  76   37  149 1
  77   37  150 1
  78   38   39 2
  79   38   41 1
  80   38   52 am
  81   40   41 1
  82   40  151 1
  83   41   42 1
  84   41  152 1
  85   42   43 1
  86   42  153 1
  87   42  154 1
  88   43   44 ar
  89   43   49 ar
  90   44   45 ar
  91   44  155 1
  92   45   46 ar
  93   45  156 1
  94   46   47 1
  95   46   48 ar
  96   47  157 1
  97   48   49 ar
  98   48  158 1
  99   49  159 1
 100   50   51 2
 101   50   53 1
 102   50   60 am
 103   52   53 1
 104   52  160 1
 105   53   54 1
 106   53  161 1
 107   54   55 1
 108   54  162 1
 109   54  163 1
 110   55   56 1
 111   55   57 1
 112   55  164 1
 113   56  165 1
 114   56  166 1
 115   56  167 1
 116   57  168 1
 117   57  169 1
 118   57  170 1
 119   58   59 2
 120   58   61 1
 121   58   74 am
 122   60   61 1
 123   60  171 1
 124   61   62 1
 125   61  172 1
 126   62   63 1
 127   62  173 1
 128   62  174 1
 129   63   64 2
 130   63   71 1
 131   64   65 1
 132   64  175 1
 133   65   66 1
 134   65  176 1
 135   66   67 ar
 136   66   71 ar
 137   67   68 ar
 138   67  177 1
 139   68   69 ar
 140   68  178 1
 141   69   70 ar
 142   69  179 1
 143   70   71 ar
 144   70  180 1
 145   72   73 2
 146   72   75 1
 147   72   78 am
 148   74   75 1
 149   74  181 1
 150   75  182 1
 151   75  183 1
 152   76   77 2
 153   76   79 1
 154   76   89 am
 155   78   79 1
 156   78  184 1
 157   79   80 1
 158   79  185 1
 159   80   81 1
 160   80  186 1
 161   80  187 1
 162   81   82 ar
 163   81   86 ar
 164   82   83 ar
 165   82  188 1
 166   83   84 ar
 167   83  189 1
 168   84   85 ar
 169   84  190 1
 170   85   86 ar
 171   85  191 1
 172   86  192 1
 173   87   88 2
 174   87   90 1
 175   87   94 1
 176   89   90 1
 177   89  193 1
 178   90   91 1
 179   90  194 1
 180   91   92 1
 181   91   93 1
 182   91  195 1
 183   92  196 1
 184   92  197 1
 185   92  198 1
 186   93  199 1
 187   94  200 1
 188   95   96 2
 189   95  111 1
 190   97   98 1
 191   97  201 1
 192   97  202 1
 193   97  203 1
 194   98   99 1
 195   98  204 1
 196   98  205 1
 197   99  100 1
 198   99  206 1
 199   99  207 1
 200  100  101 1
 201  100  208 1
 202  100  209 1
 203  101  102 1
 204  101  210 1
 205  101  211 1
 206  102  103 1
 207  102  212 1
 208  102  213 1
 209  103  104 1
 210  103  214 1
 211  103  215 1
 212  104  105 1
 213  104  216 1
 214  104  217 1
 215  105  106 1
 216  105  218 1
 217  105  219 1
 218  106  107 1
 219  106  220 1
 220  106  221 1
 221  107  108 1
 222  107  222 1
 223  107  223 1
 224  108  109 1
 225  108  224 1
 226  108  225 1
 227  109  110 1
 228  109  226 1
 229  109  227 1
 230  110  111 1
 231  110  228 1
 232  110  229 1
 233  111  230 1
 234  111  231 1

#	End of record

