#	Name: ASD07300306
#	Creating user name:	WinNT
#	Creation time:	15. 06. 2019 21:09

#	Modifying user name:	WinNT
#	Modification time:	15. 06. 2019 21:09

#	Program:	/corina/corina34_cracker 3.40 0067  02.08.2006

@<TRIPOS>MOLECULE
ASD07300306
  41   44    0    0    0
SMALL
NO_CHARGES


@<TRIPOS>ATOM
   1 C1             0.1959     0.9602    -1.6558 C.ar    
   2 N2             0.1465    -0.2455    -1.1266 N.ar    
   3 C3             1.2291    -0.7931    -0.5812 C.ar    
   4 C4             2.4230    -0.0701    -0.5771 C.ar    
   5 C5             2.4279     1.1913    -1.1437 C.ar    
   6 N6             1.3066     1.6690    -1.6684 N.ar    
   7 N7             1.1724    -2.0618    -0.0251 N.pl3   
   8 N8             3.6527    -0.6390     0.0190 N.pl3   
   9 O9             4.4162    -1.2933    -0.6683 O.2     
  10 O10            3.9009    -0.4528     1.1968 O.2     
  11 C11           -0.0551    -2.7267     0.0775 C.ar    
  12 C12           -0.1111    -4.1074    -0.0621 C.ar    
  13 C13           -1.3223    -4.7626     0.0397 C.ar    
  14 C14           -2.4831    -4.0421     0.2809 C.ar    
  15 C15           -2.4280    -2.6629     0.4201 C.ar    
  16 C16           -1.2167    -2.0068     0.3247 C.ar    
  17 O17           -3.6755    -4.6881     0.3806 O.3     
  18 C18           -3.8579    -5.5268     1.4262 C.2     
  19 N19           -3.0114    -5.6975     2.4083 N.2     
  20 C20           -3.5079    -6.6087     3.2856 C.ar    
  21 C21           -4.7565    -7.0204     2.7902 C.ar    
  22 N22           -4.9549    -6.3155     1.6153 N.pl3   
  23 C23           -3.0299    -7.1505     4.4810 C.ar    
  24 C24           -3.7850    -8.0803     5.1605 C.ar    
  25 C25           -5.0166    -8.4835     4.6668 C.ar    
  26 C26           -5.5030    -7.9579     3.4875 C.ar    
  27 C27           -6.1238    -6.4030     0.7366 C.3     
  28 Cl28           3.8828     2.1380    -1.1684 Cl      
  29 H29           -0.6979     1.3773    -2.0956 H       
  30 H30            1.9833    -2.4886     0.2929 H       
  31 H31            0.7923    -4.6683    -0.2506 H       
  32 H32           -1.3660    -5.8363    -0.0689 H       
  33 H33           -3.3321    -2.1026     0.6072 H       
  34 H34           -1.1734    -0.9336     0.4374 H       
  35 H35           -2.0713    -6.8416     4.8708 H       
  36 H36           -3.4150    -8.4989     6.0848 H       
  37 H37           -5.5989    -9.2137     5.2091 H       
  38 H38           -6.4632    -8.2755     3.1087 H       
  39 H39           -5.9608    -7.1816    -0.0086 H       
  40 H40           -7.0061    -6.6458     1.3287 H       
  41 H41           -6.2743    -5.4466     0.2357 H       
@<TRIPOS>BOND
   1    1    2 ar
   2    1    6 ar
   3    1   29 1
   4    2    3 ar
   5    3    4 ar
   6    3    7 1
   7    4    5 ar
   8    4    8 1
   9    5    6 ar
  10    5   28 1
  11    7   11 1
  12    7   30 1
  13    8    9 2
  14    8   10 2
  15   11   12 ar
  16   11   16 ar
  17   12   13 ar
  18   12   31 1
  19   13   14 ar
  20   13   32 1
  21   14   15 ar
  22   14   17 1
  23   15   16 ar
  24   15   33 1
  25   16   34 1
  26   17   18 1
  27   18   19 2
  28   18   22 1
  29   19   20 1
  30   20   21 ar
  31   20   23 ar
  32   21   22 1
  33   21   26 ar
  34   22   27 1
  35   23   24 ar
  36   23   35 1
  37   24   25 ar
  38   24   36 1
  39   25   26 ar
  40   25   37 1
  41   26   38 1
  42   27   39 1
  43   27   40 1
  44   27   41 1

#	End of record

