#	Name: ASD03491017
#	Creating user name:	WinNT
#	Creation time:	15. 06. 2019 20:42

#	Modifying user name:	WinNT
#	Modification time:	15. 06. 2019 20:42

#	Program:	/corina/corina34_cracker 3.40 0067  02.08.2006

@<TRIPOS>MOLECULE
ASD03491017
  60   63    0    0    0
SMALL
NO_CHARGES


@<TRIPOS>ATOM
   1 C1            -0.0387     1.3012    -0.3601 C.ar    
   2 C2             0.0869     0.0083    -0.8760 C.ar    
   3 C3             1.3208    -0.6498    -0.8052 C.ar    
   4 C4             2.4108    -0.0088    -0.2210 C.ar    
   5 C5             2.2693     1.2749     0.2864 C.ar    
   6 C6             1.0488     1.9234     0.2154 C.ar    
   7 C7             0.9077     3.3175     0.7701 C.3     
   8 N8             3.6474    -0.6590    -0.1456 N.am    
   9 C9             4.7889     0.0494    -0.2535 C.2     
  10 O10            4.7458     1.2338    -0.5176 O.2     
  11 C11            7.3477     0.1206    -0.2761 C.ar    
  12 C12            8.6383    -0.5672    -0.2154 C.ar    
  13 C13            9.8210     0.1743    -0.4450 C.ar    
  14 C14            9.7174     1.6012    -0.7351 C.ar    
  15 C15            8.4676     2.2048    -0.7809 C.ar    
  16 C16            7.3109     1.4861    -0.5577 C.ar    
  17 C17            8.7255    -1.9347     0.0639 C.ar    
  18 C18            9.9495    -2.5365     0.1115 C.ar    
  19 C19           11.1134    -1.8082    -0.1143 C.ar    
  20 C20           11.0621    -0.4734    -0.3899 C.ar    
  21 C21            1.8710     4.2564     0.0411 C.3     
  22 C22           -0.5289     3.8037     0.5682 C.3     
  23 C23            1.2376     3.3078     2.2640 C.3     
  24 C24            6.1037    -0.6209    -0.0487 C.2     
  25 O25            6.1449    -1.7823     0.3067 O.2     
  26 C26           10.9378     2.4003    -0.9786 C.ar    
  27 C27           11.0329     3.2302    -2.1022 C.ar    
  28 C28           12.1961     3.9574    -2.2837 C.ar    
  29 C29           13.2179     3.8426    -1.3584 C.ar    
  30 N30           13.1008     3.0520    -0.3085 N.ar    
  31 C31           12.0123     2.3445    -0.0887 C.ar    
  32 O32            1.4540    -1.9059    -1.3027 O.3     
  33 C33            1.8403    -2.0231    -2.6735 C.3     
  34 C34           -1.0411    -0.6404    -1.4738 C.1     
  35 N35           -1.9360    -1.1551    -1.9480 N.1     
  36 H36           -0.9871     1.8149    -0.4162 H       
  37 H37            3.1156     1.7702     0.7390 H       
  38 H38            3.6831    -1.6196    -0.0156 H       
  39 H39            8.3993     3.2610    -0.9958 H       
  40 H40            6.3574     1.9914    -0.6020 H       
  41 H41            7.8296    -2.5111     0.2413 H       
  42 H42           10.0157    -3.5926     0.3276 H       
  43 H43           12.0705    -2.3067    -0.0713 H       
  44 H44           11.9726     0.0810    -0.5634 H       
  45 H45            1.6360     4.2633    -1.0232 H       
  46 H46            1.7690     5.2647     0.4423 H       
  47 H47            2.8945     3.9100     0.1849 H       
  48 H48           -1.2152     3.1349     1.0876 H       
  49 H49           -0.6310     4.8120     0.9694 H       
  50 H50           -0.7640     3.8106    -0.4961 H       
  51 H51            2.2611     2.9614     2.4079 H       
  52 H52            1.1356     4.3161     2.6652 H       
  53 H53            0.5513     2.6389     2.7834 H       
  54 H54           10.2196     3.3006    -2.8093 H       
  55 H55           12.3052     4.6076    -3.1392 H       
  56 H56           14.1268     4.4091    -1.4978 H       
  57 H57           11.9538     1.7085     0.7822 H       
  58 H58            1.9101    -3.0771    -2.9425 H       
  59 H59            1.0962    -1.5359    -3.3036 H       
  60 H60            2.8092    -1.5458    -2.8201 H       
@<TRIPOS>BOND
   1    1    2 ar
   2    1    6 ar
   3    1   36 1
   4    2    3 ar
   5    2   34 1
   6    3    4 ar
   7    3   32 1
   8    4    5 ar
   9    4    8 1
  10    5    6 ar
  11    5   37 1
  12    6    7 1
  13    7   21 1
  14    7   22 1
  15    7   23 1
  16    8    9 am
  17    8   38 1
  18    9   10 2
  19    9   24 1
  20   11   12 ar
  21   11   16 ar
  22   11   24 1
  23   12   13 ar
  24   12   17 ar
  25   13   14 ar
  26   13   20 ar
  27   14   15 ar
  28   14   26 1
  29   15   16 ar
  30   15   39 1
  31   16   40 1
  32   17   18 ar
  33   17   41 1
  34   18   19 ar
  35   18   42 1
  36   19   20 ar
  37   19   43 1
  38   20   44 1
  39   21   45 1
  40   21   46 1
  41   21   47 1
  42   22   48 1
  43   22   49 1
  44   22   50 1
  45   23   51 1
  46   23   52 1
  47   23   53 1
  48   24   25 2
  49   26   27 ar
  50   26   31 ar
  51   27   28 ar
  52   27   54 1
  53   28   29 ar
  54   28   55 1
  55   29   30 ar
  56   29   56 1
  57   30   31 ar
  58   31   57 1
  59   32   33 1
  60   33   58 1
  61   33   59 1
  62   33   60 1
  63   34   35 3

#	End of record

