#	Name: ASD04880993
#	Creating user name:	WinNT
#	Creation time:	15. 06. 2019 20:53

#	Modifying user name:	WinNT
#	Modification time:	15. 06. 2019 20:53

#	Program:	/corina/corina34_cracker 3.40 0067  02.08.2006

@<TRIPOS>MOLECULE
ASD04880993
  80   84    0    0    0
SMALL
NO_CHARGES


@<TRIPOS>ATOM
   1 C1             0.1258     1.4841    -0.4324 C.2     
   2 C2             0.1459     0.0188    -0.4832 C.2     
   3 O3            -0.7767    -0.5850    -0.9985 O.2     
   4 N4             1.1861    -0.6594     0.0409 N.am    
   5 C5             1.1515    -2.0586     0.1000 C.ar    
   6 C6             2.3306    -2.7946    -0.0510 C.ar    
   7 C7             2.2978    -4.1828     0.0079 C.ar    
   8 C8             1.1042    -4.8385     0.2153 C.ar    
   9 C9            -0.0779    -4.1091     0.3671 C.ar    
  10 C10           -0.0470    -2.7123     0.3135 C.ar    
  11 C11           -1.3561    -4.8116     0.5887 C.2     
  12 O12           -2.3843    -4.1760     0.7207 O.2     
  13 N13           -1.3842    -6.1579     0.6448 N.am    
  14 C14           -2.6535    -6.8555     0.8648 C.3     
  15 C15           -2.4085    -8.3657     0.8857 C.3     
  16 N16            3.5393    -2.1359    -0.2613 N.3     
  17 C17            3.5456    -1.4491    -1.5605 C.3     
  18 C18            4.8560    -0.6741    -1.7184 C.3     
  19 N19            5.9883    -1.6048    -1.6124 N.3     
  20 C20            5.9819    -2.2917    -0.3132 C.3     
  21 C21            4.6716    -3.0666    -0.1553 C.3     
  22 C22            7.2007    -0.9441    -1.8233 C.ar    
  23 C23            8.3968    -1.6487    -1.7658 C.ar    
  24 C24            9.5935    -0.9925    -1.9753 C.ar    
  25 C25            9.6025     0.3647    -2.2416 C.ar    
  26 C26            8.4140     1.0689    -2.2995 C.ar    
  27 C27            7.2129     0.4176    -2.0966 C.ar    
  28 C28           -3.7342    -9.0942     1.1155 C.3     
  29 N29           -3.4996   -10.5402     1.1355 N.am    
  30 C30           -3.2118   -11.2466     2.2422 C.2     
  31 C31           -3.0229   -12.7065     1.8932 C.3     
  32 C32           -2.8287   -12.7075     0.3592 C.3     
  33 C33           -3.5548   -11.4045    -0.0494 C.3     
  34 O34           -3.1169   -10.7813     3.3582 O.2     
  35 O35            1.0793     2.2718     0.1066 O.3     
  36 C36            0.7235     3.5561    -0.0283 C.2     
  37 C37           -0.4701     3.6126    -0.6593 C.2     
  38 C38           -0.8586     2.2907    -0.9276 C.2     
  39 C39            1.5226     4.7425     0.4459 C.3     
  40 C40           10.8914    -1.7559    -1.9132 C.3     
  41 C41           10.9106     1.0776    -2.4687 C.3     
  42 H42            1.9586    -0.1787     0.3770 H       
  43 H43            3.2101    -4.7487    -0.1095 H       
  44 H44            1.0820    -5.9174     0.2603 H       
  45 H45           -0.9584    -2.1457     0.4345 H       
  46 H46           -0.5640    -6.6649     0.5395 H       
  47 H47           -3.0792    -6.5433     1.8185 H       
  48 H48           -3.3468    -6.6110     0.0600 H       
  49 H49           -1.9829    -8.6779    -0.0679 H       
  50 H50           -1.7153    -8.6102     1.6905 H       
  51 H51            3.4591    -2.1840    -2.3608 H       
  52 H52            2.7054    -0.7565    -1.6098 H       
  53 H53            4.8754    -0.1873    -2.6934 H       
  54 H54            4.9297     0.0792    -0.9340 H       
  55 H55            6.8222    -2.9842    -0.2639 H       
  56 H56            6.0685    -1.5568     0.4871 H       
  57 H57            4.6522    -3.5534     0.8198 H       
  58 H58            4.5978    -3.8199    -0.9397 H       
  59 H59            8.3905    -2.7083    -1.5572 H       
  60 H60            8.4245     2.1286    -2.5077 H       
  61 H61            6.2847     0.9674    -2.1463 H       
  62 H62           -4.1598    -8.7820     2.0691 H       
  63 H63           -4.4274    -8.8497     0.3107 H       
  64 H64           -2.1388   -13.1062     2.3899 H       
  65 H65           -3.9077   -13.2816     2.1661 H       
  66 H66           -1.7708   -12.6670     0.0999 H       
  67 H67           -3.3069   -13.5760    -0.0939 H       
  68 H68           -4.5909   -11.6143    -0.3153 H       
  69 H69           -3.0383   -10.9324    -0.8851 H       
  70 H70           -1.0199     4.5069    -0.9129 H       
  71 H71           -1.7621     1.9730    -1.4266 H       
  72 H72            2.4415     4.3961     0.9188 H       
  73 H73            1.7689     5.3781    -0.4047 H       
  74 H74            0.9352     5.3115     1.1666 H       
  75 H75           11.1363    -2.1373    -2.9045 H       
  76 H76           11.6867    -1.0932    -1.5721 H       
  77 H77           10.7897    -2.5893    -1.2181 H       
  78 H78           11.1587     1.0525    -3.5298 H       
  79 H79           10.8216     2.1133    -2.1409 H       
  80 H80           11.6977     0.5827    -1.8998 H       
@<TRIPOS>BOND
   1    1    2 1
   2    1   35 1
   3    1   38 2
   4    2    3 2
   5    2    4 am
   6    4    5 1
   7    4   42 1
   8    5    6 ar
   9    5   10 ar
  10    6    7 ar
  11    6   16 1
  12    7    8 ar
  13    7   43 1
  14    8    9 ar
  15    8   44 1
  16    9   10 ar
  17    9   11 1
  18   10   45 1
  19   11   12 2
  20   11   13 am
  21   13   14 1
  22   13   46 1
  23   14   15 1
  24   14   47 1
  25   14   48 1
  26   15   28 1
  27   15   49 1
  28   15   50 1
  29   16   17 1
  30   16   21 1
  31   17   18 1
  32   17   51 1
  33   17   52 1
  34   18   19 1
  35   18   53 1
  36   18   54 1
  37   19   20 1
  38   19   22 1
  39   20   21 1
  40   20   55 1
  41   20   56 1
  42   21   57 1
  43   21   58 1
  44   22   23 ar
  45   22   27 ar
  46   23   24 ar
  47   23   59 1
  48   24   25 ar
  49   24   40 1
  50   25   26 ar
  51   25   41 1
  52   26   27 ar
  53   26   60 1
  54   27   61 1
  55   28   29 1
  56   28   62 1
  57   28   63 1
  58   29   30 am
  59   29   33 1
  60   30   31 1
  61   30   34 2
  62   31   32 1
  63   31   64 1
  64   31   65 1
  65   32   33 1
  66   32   66 1
  67   32   67 1
  68   33   68 1
  69   33   69 1
  70   35   36 1
  71   36   37 2
  72   36   39 1
  73   37   38 1
  74   37   70 1
  75   38   71 1
  76   39   72 1
  77   39   73 1
  78   39   74 1
  79   40   75 1
  80   40   76 1
  81   40   77 1
  82   41   78 1
  83   41   79 1
  84   41   80 1

#	End of record

