#	Name: ASD01001045
#	Creating user name:	WinNT
#	Creation time:	15. 06. 2019 18:55

#	Modifying user name:	WinNT
#	Modification time:	15. 06. 2019 18:55

#	Program:	/corina/corina34_cracker 3.40 0067  02.08.2006

@<TRIPOS>MOLECULE
ASD01001045
  48   50    0    0    0
SMALL
NO_CHARGES


@<TRIPOS>ATOM
   1 C1             0.1497     0.8240    -0.2487 C.ar    
   2 C2             0.3515    -0.4089    -0.8387 C.ar    
   3 C3             1.2286     1.6398     0.0371 C.ar    
   4 C4             1.6381    -0.8280    -1.1442 C.ar    
   5 C5             2.5121     1.2243    -0.2665 C.ar    
   6 C6             2.7192    -0.0074    -0.8563 C.ar    
   7 C7             3.6859     2.1161     0.0465 C.3     
   8 C8             3.2537     3.5581    -0.0224 C.ar    
   9 C9             4.1943     1.8097     1.4316 C.ar    
  10 S10            5.0072     1.8226    -1.1613 S.3     
  11 C11            3.4545     4.3924     1.0613 C.ar    
  12 C12            2.6614     4.0480    -1.1714 C.ar    
  13 C13            3.3556     1.9471     2.5218 C.ar    
  14 C14            5.4978     1.3859     1.6115 C.ar    
  15 C15            6.2339     3.0909    -0.7404 C.3     
  16 C16            3.0631     5.7166     0.9960 C.ar    
  17 C17            2.2648     5.3707    -1.2346 C.ar    
  18 C18            3.8202     1.6606     3.7918 C.ar    
  19 C19            5.9641     1.1049     2.8821 C.ar    
  20 C20            7.4106     3.0055    -1.7146 C.3     
  21 C21            2.4713     6.2066    -0.1531 C.ar    
  22 C22            5.1235     1.2363     3.9716 C.ar    
  23 N23            8.4040     4.0327    -1.3737 N.3     
  24 H24            7.8692     2.0192    -1.6448 H       
  25 O25            1.8392    -2.0404    -1.7242 O.3     
  26 C26            0.6800    -2.8321    -1.9914 C.3     
  27 H27           -0.8521     1.1526    -0.0147 H       
  28 H28           -0.4916    -1.0460    -1.0615 H       
  29 H29            1.0687     2.6033     0.4980 H       
  30 H30            3.7219    -0.3315    -1.0929 H       
  31 H31            3.9169     4.0096     1.9591 H       
  32 H32            2.5088     3.3974    -2.0199 H       
  33 H33            2.3373     2.2786     2.3814 H       
  34 H34            6.1516     1.2739     0.7592 H       
  35 H35            5.7753     4.0772    -0.8101 H       
  36 H36            6.5914     2.9275     0.2763 H       
  37 H37            3.2194     6.3682     1.8430 H       
  38 H38            1.8024     5.7535    -2.1324 H       
  39 H39            3.1651     1.7686     4.6436 H       
  40 H40            6.9823     0.7734     3.0225 H       
  41 H41            7.0532     3.1690    -2.7312 H       
  42 H42            2.1652     7.2410    -0.2039 H       
  43 H43            5.4879     1.0168     4.9643 H       
  44 H44            8.7034     3.9419    -0.4144 H       
  45 H45            9.1917     3.9969    -2.0033 H       
  46 H46            0.1570    -3.0374    -1.0574 H       
  47 H47            0.0180    -2.2905    -2.6671 H       
  48 H48            0.9808    -3.7723    -2.4537 H       
@<TRIPOS>BOND
   1    1    2 ar
   2    1    3 ar
   3    1   27 1
   4    2    4 ar
   5    2   28 1
   6    3    5 ar
   7    3   29 1
   8    4    6 ar
   9    4   25 1
  10    5    6 ar
  11    5    7 1
  12    6   30 1
  13    7   10 1
  14    7    8 1
  15    7    9 1
  16    8   12 ar
  17    8   11 ar
  18    9   14 ar
  19    9   13 ar
  20   10   15 1
  21   11   16 ar
  22   11   31 1
  23   12   17 ar
  24   12   32 1
  25   13   18 ar
  26   13   33 1
  27   14   19 ar
  28   14   34 1
  29   15   20 1
  30   15   35 1
  31   15   36 1
  32   16   21 ar
  33   16   37 1
  34   17   21 ar
  35   17   38 1
  36   18   22 ar
  37   18   39 1
  38   19   22 ar
  39   19   40 1
  40   20   23 1
  41   20   24 1
  42   20   41 1
  43   21   42 1
  44   22   43 1
  45   23   44 1
  46   23   45 1
  47   25   26 1
  48   26   46 1
  49   26   47 1
  50   26   48 1

#	End of record

