#	Name: ASD01913701
#	Creating user name:	WinNT
#	Creation time:	15. 06. 2019 20:02

#	Modifying user name:	WinNT
#	Modification time:	15. 06. 2019 20:02

#	Program:	/corina/corina34_cracker 3.40 0067  02.08.2006

@<TRIPOS>MOLECULE
ASD01913701
  46   47    0    0    0
SMALL
NO_CHARGES


@<TRIPOS>ATOM
   1 C1            -0.0184     1.5028     0.0103 C.ar    
   2 C2             0.0021    -0.0041     0.0020 C.3     
   3 O3             0.0214    -0.4876     1.3466 O.3     
   4 C4             0.0413    -1.8317     1.5167 C.ar    
   5 N5             0.0420    -2.6238     0.4557 N.ar    
   6 C6             0.0610    -3.9354     0.5691 C.ar    
   7 C7             0.0807    -4.5400     1.8264 C.ar    
   8 C8             0.0805    -3.7291     2.9711 C.ar    
   9 C9             0.0664    -2.3598     2.8041 C.ar    
  10 C10            0.1009    -6.0108     1.9502 C.2     
  11 N11            0.1004    -6.7803     0.8437 N.am    
  12 O12            0.1179    -6.5281     3.0503 O.2     
  13 C13            0.1205    -8.2400     0.9665 C.3     
  14 C14            1.1629     2.2286     0.0029 C.ar    
  15 C15            1.1049     3.6094     0.0104 C.ar    
  16 N16           -0.0554     4.2358     0.0248 N.ar    
  17 C17           -1.1984     3.5781     0.0322 C.ar    
  18 C18           -1.2189     2.1962     0.0197 C.ar    
  19 C19            0.1155    -8.8693    -0.4281 C.3     
  20 C20            0.1365   -10.3937    -0.2997 C.3     
  21 C21           -1.0996   -10.8575     0.4735 C.3     
  22 C22            0.1315   -11.0230    -1.6943 C.3     
  23 C23            1.3985   -10.8251     0.4499 C.3     
  24 H24           -0.8878    -0.3767    -0.5053 H       
  25 H25            0.8920    -0.3525    -0.5222 H       
  26 H26            0.0609    -4.5492    -0.3196 H       
  27 H27            0.0954    -4.1660     3.9587 H       
  28 H28            0.0662    -1.7049     3.6629 H       
  29 H29            0.0868    -6.3676    -0.0341 H       
  30 H30            1.0196    -8.5473     1.5006 H       
  31 H31           -0.7601    -8.5704     1.5174 H       
  32 H32            2.1163     1.7214    -0.0082 H       
  33 H33            2.0206     4.1822     0.0047 H       
  34 H34           -2.1292     4.1257     0.0444 H       
  35 H35           -2.1582     1.6633     0.0255 H       
  36 H36           -0.7836    -8.5619    -0.9621 H       
  37 H37            0.9961    -8.5389    -0.9789 H       
  38 H38           -1.9987   -10.5502    -0.0606 H       
  39 H39           -1.0847   -11.9436     0.5649 H       
  40 H40           -1.0961   -10.4092     1.4670 H       
  41 H41            1.0121   -10.6926    -2.2452 H       
  42 H42            0.1464   -12.1091    -1.6029 H       
  43 H43           -0.7676   -10.7157    -2.2284 H       
  44 H44            1.4021   -10.3768     1.4435 H       
  45 H45            1.4135   -11.9112     0.5413 H       
  46 H46            2.2791   -10.4947    -0.1009 H       
@<TRIPOS>BOND
   1    1    2 1
   2    1   14 ar
   3    1   18 ar
   4    2    3 1
   5    2   24 1
   6    2   25 1
   7    3    4 1
   8    4    5 ar
   9    4    9 ar
  10    5    6 ar
  11    6    7 ar
  12    6   26 1
  13    7    8 ar
  14    7   10 1
  15    8    9 ar
  16    8   27 1
  17    9   28 1
  18   10   11 am
  19   10   12 2
  20   11   13 1
  21   11   29 1
  22   13   19 1
  23   13   30 1
  24   13   31 1
  25   14   15 ar
  26   14   32 1
  27   15   16 ar
  28   15   33 1
  29   16   17 ar
  30   17   18 ar
  31   17   34 1
  32   18   35 1
  33   19   20 1
  34   19   36 1
  35   19   37 1
  36   20   21 1
  37   20   22 1
  38   20   23 1
  39   21   38 1
  40   21   39 1
  41   21   40 1
  42   22   41 1
  43   22   42 1
  44   22   43 1
  45   23   44 1
  46   23   45 1
  47   23   46 1

#	End of record

