#	Name: ASD07480022
#	Creating user name:	WinNT
#	Creation time:	15. 06. 2019 21:11

#	Modifying user name:	WinNT
#	Modification time:	15. 06. 2019 21:11

#	Program:	/corina/corina34_cracker 3.40 0067  02.08.2006

@<TRIPOS>MOLECULE
ASD07480022
  50   54    0    0    0
SMALL
NO_CHARGES


@<TRIPOS>ATOM
   1 C1            -0.0169     1.3977     0.0097 C.ar    
   2 C2             0.0021    -0.0041     0.0020 C.ar    
   3 N3             1.1357    -0.6765    -0.0124 N.ar    
   4 C4             2.3096    -0.0464    -0.0202 C.ar    
   5 C5             2.3606     1.3663    -0.0131 C.ar    
   6 C6             1.1559     2.0936     0.0023 C.ar    
   7 C7             3.5386    -0.7549    -0.0352 C.ar    
   8 N8             4.6651    -0.0577    -0.0418 N.ar    
   9 C9             4.6602     1.2660    -0.0348 C.ar    
  10 N10            3.5552     1.9729    -0.0209 N.ar    
  11 N11           -1.1996    -0.6993     0.0102 N.3     
  12 C12           -2.0147    -0.3596    -1.1705 C.3     
  13 C13           -2.3176    -1.6787    -1.9119 C.3     
  14 C14           -2.1391    -2.7507    -0.8048 C.3     
  15 C15           -0.9669    -2.1593     0.0173 C.3     
  16 C16           -0.9961    -2.6884     1.4281 C.ar    
  17 C17           -1.6419    -1.9756     2.4200 C.ar    
  18 C18           -1.6683    -2.4614     3.7164 C.ar    
  19 C19           -1.0481    -3.6615     4.0185 C.ar    
  20 C20           -0.4029    -4.3750     3.0262 C.ar    
  21 C21           -0.3806    -3.8917     1.7292 C.ar    
  22 F22            0.2497    -4.5893     0.7590 F       
  23 F23           -2.2990    -1.7640     4.6864 F       
  24 N24            3.5601    -2.1349    -0.0423 N.3     
  25 C25            4.9450    -2.6418    -0.0577 C.3     
  26 C26            3.4380    -2.6724     1.3256 C.3     
  27 C27            4.5062    -3.7101     0.9536 C.3     
  28 C28            3.9472    -4.9839     0.3164 C.3     
  29 O29            5.4600    -3.9644     1.9869 O.3     
  30 H30           -0.9590     1.9257     0.0171 H       
  31 H31            1.1600     3.1736     0.0080 H       
  32 H32            5.6066     1.7864    -0.0403 H       
  33 H33           -2.9460     0.1110    -0.8553 H       
  34 H34           -1.4590     0.3136    -1.8234 H       
  35 H35           -3.3398    -1.6820    -2.2904 H       
  36 H36           -1.6053    -1.8382    -2.7213 H       
  37 H37           -3.0390    -2.8366    -0.1957 H       
  38 H38           -1.8671    -3.7146    -1.2349 H       
  39 H39           -0.0142    -2.3941    -0.4572 H       
  40 H40           -2.1258    -1.0392     2.1842 H       
  41 H41           -1.0681    -4.0401     5.0298 H       
  42 H42            0.0812    -5.3112     3.2620 H       
  43 H43            5.2460    -3.0534    -1.0211 H       
  44 H44            5.6706    -1.9350     0.3446 H       
  45 H45            3.7614    -1.9737     2.0972 H       
  46 H46            2.4618    -3.1099     1.5347 H       
  47 H47            4.7089    -5.4373    -0.3179 H       
  48 H48            3.6610    -5.6863     1.0992 H       
  49 H49            3.0734    -4.7355    -0.2860 H       
  50 H50            5.1811    -4.6377     2.6225 H       
@<TRIPOS>BOND
   1    1    2 ar
   2    1    6 ar
   3    1   30 1
   4    2    3 ar
   5    2   11 1
   6    3    4 ar
   7    4    5 ar
   8    4    7 ar
   9    5    6 ar
  10    5   10 ar
  11    6   31 1
  12    7    8 ar
  13    7   24 1
  14    8    9 ar
  15    9   10 ar
  16    9   32 1
  17   11   12 1
  18   11   15 1
  19   12   13 1
  20   12   33 1
  21   12   34 1
  22   13   14 1
  23   13   35 1
  24   13   36 1
  25   14   15 1
  26   14   37 1
  27   14   38 1
  28   15   16 1
  29   15   39 1
  30   16   17 ar
  31   16   21 ar
  32   17   18 ar
  33   17   40 1
  34   18   19 ar
  35   18   23 1
  36   19   20 ar
  37   19   41 1
  38   20   21 ar
  39   20   42 1
  40   21   22 1
  41   24   25 1
  42   24   26 1
  43   25   27 1
  44   25   43 1
  45   25   44 1
  46   26   27 1
  47   26   45 1
  48   26   46 1
  49   27   28 1
  50   27   29 1
  51   28   47 1
  52   28   48 1
  53   28   49 1
  54   29   50 1

#	End of record

