#	Name: ASD03540096
#	Creating user name:	WinNT
#	Creation time:	15. 06. 2019 20:42

#	Modifying user name:	WinNT
#	Modification time:	15. 06. 2019 20:42

#	Program:	/corina/corina34_cracker 3.40 0067  02.08.2006

@<TRIPOS>MOLECULE
ASD03540096
  46   48    0    0    0
SMALL
NO_CHARGES


@<TRIPOS>ATOM
   1 C1            -0.0180     1.4744     0.0101 C.2     
   2 C2             0.0021    -0.0041     0.0020 C.ar    
   3 C3             1.2170    -0.6857    -0.0132 C.ar    
   4 C4             1.2270    -2.0788    -0.0203 C.ar    
   5 C5             2.5118    -2.8105    -0.0360 C.2     
   6 C6             0.0206    -2.7828    -0.0121 C.ar    
   7 C7            -1.1801    -2.1011     0.0030 C.ar    
   8 C8            -1.1970    -0.7204     0.0155 C.ar    
   9 O9             1.0263     2.0964     0.0035 O.2     
  10 N10           -1.1942     2.1323     0.0193 N.am    
  11 O11            3.5608    -2.1965    -0.0428 O.2     
  12 N12            2.5197    -4.1582    -0.0429 N.am    
  13 C13            3.7927    -4.8831    -0.0584 C.3     
  14 C14            3.5261    -6.3663    -0.0634 C.ar    
  15 C15            3.3927    -7.0401    -1.2631 C.ar    
  16 C16            3.1486    -8.4004    -1.2689 C.ar    
  17 C17            3.0377    -9.0884    -0.0725 C.ar    
  18 C18            3.1715    -8.4125     1.1285 C.ar    
  19 C19            3.4208    -7.0532     1.1317 C.ar    
  20 F20            2.7987   -10.4180    -0.0769 F       
  21 C21           -1.2141     3.5972     0.0274 C.3     
  22 C22           -2.6415     4.0801     0.0368 C.ar    
  23 C23           -3.2901     4.2950     1.2386 C.ar    
  24 C24           -4.5990     4.7383     1.2484 C.ar    
  25 C25           -5.2608     4.9673     0.0540 C.ar    
  26 C26           -4.6102     4.7518    -1.1491 C.ar    
  27 C27           -3.2996     4.3135    -1.1564 C.ar    
  28 F28           -6.5405     5.4003     0.0624 F       
  29 H29            2.1469    -0.1366    -0.0199 H       
  30 H30            0.0269    -3.8628    -0.0180 H       
  31 H31           -2.1100    -2.6502     0.0090 H       
  32 H32           -2.1395    -0.1933     0.0318 H       
  33 H33           -2.0276     1.6360     0.0206 H       
  34 H34            1.6826    -4.6482    -0.0375 H       
  35 H35            4.3543    -4.6119    -0.9524 H       
  36 H36            4.3710    -4.6209     0.8275 H       
  37 H37            3.4789    -6.5032    -2.1963 H       
  38 H38            3.0441    -8.9265    -2.2063 H       
  39 H39            3.0852    -8.9481     2.0623 H       
  40 H40            3.5293    -6.5265     2.0684 H       
  41 H41           -0.7010     3.9626     0.9169 H       
  42 H42           -0.7094     3.9723    -0.8630 H       
  43 H43           -2.7738     4.1160     2.1701 H       
  44 H44           -5.1056     4.9057     2.1874 H       
  45 H45           -5.1255     4.9300    -2.0814 H       
  46 H46           -2.7906     4.1492    -2.0947 H       
@<TRIPOS>BOND
   1    1    2 1
   2    1    9 2
   3    1   10 am
   4    2    3 ar
   5    2    8 ar
   6    3    4 ar
   7    3   29 1
   8    4    5 1
   9    4    6 ar
  10    5   11 2
  11    5   12 am
  12    6    7 ar
  13    6   30 1
  14    7    8 ar
  15    7   31 1
  16    8   32 1
  17   10   21 1
  18   10   33 1
  19   12   13 1
  20   12   34 1
  21   13   14 1
  22   13   35 1
  23   13   36 1
  24   14   15 ar
  25   14   19 ar
  26   15   16 ar
  27   15   37 1
  28   16   17 ar
  29   16   38 1
  30   17   18 ar
  31   17   20 1
  32   18   19 ar
  33   18   39 1
  34   19   40 1
  35   21   22 1
  36   21   41 1
  37   21   42 1
  38   22   23 ar
  39   22   27 ar
  40   23   24 ar
  41   23   43 1
  42   24   25 ar
  43   24   44 1
  44   25   26 ar
  45   25   28 1
  46   26   27 ar
  47   26   45 1
  48   27   46 1

#	End of record

