#	Name: ASD00431370
#	Creating user name:	WinNT
#	Creation time:	15. 06. 2019 18:35

#	Modifying user name:	WinNT
#	Modification time:	15. 06. 2019 18:35

#	Program:	/corina/corina34_cracker 3.40 0067  02.08.2006

@<TRIPOS>MOLECULE
ASD00431370
  40   41    0    0    0
SMALL
NO_CHARGES


@<TRIPOS>ATOM
   1 C1            -0.1109     1.1937    -0.5957 C.2     
   2 N2             0.0000    -0.0078     0.0047 N.am    
   3 O3             0.8451     1.6766    -1.1698 O.2     
   4 O4            -1.2826     1.8566    -0.5641 O.3     
   5 C5             1.1925    -0.7370    -0.1015 C.ar    
   6 C6             1.1736    -2.1216     0.0164 C.ar    
   7 C7             2.3493    -2.8393    -0.0889 C.ar    
   8 C8             3.5484    -2.1776    -0.3123 C.ar    
   9 C9             3.5674    -0.7955    -0.4295 C.ar    
  10 C10            2.3918    -0.0771    -0.3302 C.ar    
  11 O11            4.7053    -2.8842    -0.4159 O.3     
  12 S12            6.1658    -4.7836    -1.7031 S.3     
  13 C13            4.8447    -3.7246    -1.4679 C.2     
  14 N14            3.9934    -3.8414    -2.4417 N.2     
  15 C15            4.2792    -4.7059    -3.3872 C.2     
  16 C16            5.4480    -5.3646    -3.2035 C.2     
  17 C17            6.0154    -6.3816    -4.0951 C.2     
  18 N18            7.1506    -6.9415    -3.8026 N.2     
  19 O19            7.6984    -7.9234    -4.6634 O.3     
  20 Cl20           5.1701    -6.8370    -5.5414 Cl      
  21 Cl21          -0.3267    -2.9489     0.2965 Cl      
  22 C22           -1.3291     3.1452    -1.2316 C.3     
  23 C23           -0.9994     2.9636    -2.7146 C.3     
  24 C24           -2.7306     3.7425    -1.0902 C.3     
  25 C25           -0.3064     4.0874    -0.5935 C.3     
  26 H26           -0.7453    -0.3680     0.5103 H       
  27 H27            2.3353    -3.9153     0.0030 H       
  28 H28            4.5012    -0.2813    -0.6027 H       
  29 H29            2.4065     0.9985    -0.4263 H       
  30 H30            3.6372    -4.8772    -4.2386 H       
  31 H31            8.5446    -8.2821    -4.3627 H       
  32 H32           -1.7280     2.2923    -3.1692 H       
  33 H33           -1.0344     3.9309    -3.2157 H       
  34 H34           -0.0010     2.5381    -2.8153 H       
  35 H35           -2.9655     3.8719    -0.0337 H       
  36 H36           -2.7656     4.7098    -1.5913 H       
  37 H37           -3.4592     3.0712    -1.5449 H       
  38 H38            0.6920     3.6619    -0.6942 H       
  39 H39           -0.3414     5.0548    -1.0946 H       
  40 H40           -0.5413     4.2168     0.4630 H       
@<TRIPOS>BOND
   1    1    2 am
   2    1    3 2
   3    1    4 1
   4    2    5 1
   5    2   26 1
   6    4   22 1
   7    5    6 ar
   8    5   10 ar
   9    6    7 ar
  10    6   21 1
  11    7    8 ar
  12    7   27 1
  13    8    9 ar
  14    8   11 1
  15    9   10 ar
  16    9   28 1
  17   10   29 1
  18   11   13 1
  19   12   13 1
  20   12   16 1
  21   13   14 2
  22   14   15 1
  23   15   16 2
  24   15   30 1
  25   16   17 1
  26   17   18 2
  27   17   20 1
  28   18   19 1
  29   19   31 1
  30   22   23 1
  31   22   25 1
  32   22   24 1
  33   23   32 1
  34   23   33 1
  35   23   34 1
  36   24   35 1
  37   24   36 1
  38   24   37 1
  39   25   38 1
  40   25   39 1
  41   25   40 1

#	End of record

