#	Name: ASD05730072
#	Creating user name:	WinNT
#	Creation time:	15. 06. 2019 21:02

#	Modifying user name:	WinNT
#	Modification time:	15. 06. 2019 21:02

#	Program:	/corina/corina34_cracker 3.40 0067  02.08.2006

@<TRIPOS>MOLECULE
ASD05730072
  71   77    0    0    0
SMALL
NO_CHARGES


@<TRIPOS>ATOM
   1 C1             0.9421     1.6222    -0.7968 C.3     
   2 C2             0.5929     0.1569    -0.7502 C.ar    
   3 C3            -0.3751    -0.2940     0.1274 C.ar    
   4 C4            -0.6978    -1.6364     0.1728 C.ar    
   5 C5            -0.0493    -2.5348    -0.6648 C.ar    
   6 C6             0.9228    -2.0805    -1.5466 C.ar    
   7 C7             1.2385    -0.7348    -1.5912 C.ar    
   8 N8            -0.3741    -3.8937    -0.6200 N.pl3   
   9 C9            -0.3295    -4.6531    -1.7735 C.ar    
  10 N10           -0.5334    -5.9586    -1.6859 N.ar    
  11 C11           -0.4983    -6.7214    -2.7727 C.ar    
  12 C12           -0.2398    -6.1129    -4.0201 C.ar    
  13 C13           -0.0304    -4.7263    -4.0598 C.ar    
  14 N14           -0.0889    -4.0459    -2.9303 N.ar    
  15 N15           -0.7080    -8.0749    -2.6912 N.am    
  16 C16           -0.6709    -8.8437    -3.7965 C.2     
  17 C17           -0.4053    -8.2443    -5.1059 C.2     
  18 C18           -0.1957    -6.8943    -5.1972 C.2     
  19 C19           -0.9745    -8.6901    -1.3886 C.3     
  20 C20           -2.3076    -9.4706    -1.4211 C.3     
  21 O21           -0.8588   -10.0439    -3.7063 O.2     
  22 C22           -0.3642    -9.0910    -6.3212 C.ar    
  23 S23           -0.4608     2.6045    -0.1837 S.3     
  24 C24           -1.4750    -9.1642    -7.1608 C.ar    
  25 C25           -1.4312    -9.9539    -8.2915 C.ar    
  26 C26           -0.2871   -10.6727    -8.5929 C.ar    
  27 C27            0.8190   -10.6036    -7.7625 C.ar    
  28 C28            0.7878    -9.8131    -6.6324 C.ar    
  29 Cl29          -0.2389   -11.6647   -10.0168 Cl      
  30 C30            2.1539     1.8914     0.1018 C.3     
  31 N31            2.5229     3.3070     0.0286 N.3     
  32 C32            1.5721     4.1724     0.7304 C.3     
  33 C33            0.2674     4.2674    -0.0678 C.3     
  34 F34            2.1839    -0.2910    -2.4483 F       
  35 C35            0.0847    -9.7694    -1.0729 C.3     
  36 O36           -0.6469   -10.8201    -0.4046 O.3     
  37 C37           -1.8960   -10.9291    -1.1212 C.3     
  38 S38            2.1962    -9.7258    -5.5772 S.o2    
  39 C39            2.8432    -8.0919    -5.7050 C.2     
  40 C40            2.6211    -7.0892    -4.8499 C.2     
  41 S41            3.9036    -7.4935    -6.9786 S.3     
  42 C42            3.9365    -5.9524    -6.2389 C.2     
  43 N43            3.2198    -5.9586    -5.1660 N.2     
  44 O44            1.7112    -9.8626    -4.2486 O.2     
  45 O45            3.1738   -10.5897    -6.1406 O.2     
  46 H46            1.1748     1.9108    -1.8218 H       
  47 H47           -0.8797     0.4041     0.7789 H       
  48 H48           -1.4538    -1.9873     0.8596 H       
  49 H49            1.4291    -2.7767    -2.1989 H       
  50 H50           -0.6308    -4.3036     0.2208 H       
  51 H51            0.1701    -4.2254    -4.9955 H       
  52 H52            0.0014    -6.4336    -6.1539 H       
  53 H53           -0.9950    -7.9316    -0.6061 H       
  54 H54           -2.9862    -9.0996    -0.6531 H       
  55 H55           -2.7683    -9.3987    -2.4063 H       
  56 H56           -2.3682    -8.6041    -6.9264 H       
  57 H57           -2.2911   -10.0116    -8.9423 H       
  58 H58            1.7089   -11.1666    -8.0021 H       
  59 H59            1.9055     1.6347     1.1315 H       
  60 H60            2.9936     1.2807    -0.2300 H       
  61 H61            3.4624     3.4537     0.3660 H       
  62 H62            1.3641     3.7572     1.7165 H       
  63 H63            2.0021     5.1679     0.8412 H       
  64 H64            0.4768     4.6460    -1.0682 H       
  65 H65           -0.4261     4.9360     0.4422 H       
  66 H66            0.5307   -10.1443    -1.9941 H       
  67 H67            0.8540    -9.3650    -0.4150 H       
  68 H68           -2.6484   -11.4156    -0.5004 H       
  69 H69           -1.7538   -11.4818    -2.0498 H       
  70 H70            2.0013    -7.1966    -3.9719 H       
  71 H71            4.4817    -5.0986    -6.6131 H       
@<TRIPOS>BOND
   1    1    2 1
   2    1   30 1
   3    1   23 1
   4    1   46 1
   5    2    3 ar
   6    2    7 ar
   7    3    4 ar
   8    3   47 1
   9    4    5 ar
  10    4   48 1
  11    5    6 ar
  12    5    8 1
  13    6    7 ar
  14    6   49 1
  15    7   34 1
  16    8    9 1
  17    8   50 1
  18    9   10 ar
  19    9   14 ar
  20   10   11 ar
  21   11   12 ar
  22   11   15 1
  23   12   13 ar
  24   12   18 1
  25   13   14 ar
  26   13   51 1
  27   15   16 am
  28   15   19 1
  29   16   17 1
  30   16   21 2
  31   17   18 2
  32   17   22 1
  33   18   52 1
  34   19   20 1
  35   19   35 1
  36   19   53 1
  37   20   37 1
  38   20   54 1
  39   20   55 1
  40   22   24 ar
  41   22   28 ar
  42   23   33 1
  43   24   25 ar
  44   24   56 1
  45   25   26 ar
  46   25   57 1
  47   26   27 ar
  48   26   29 1
  49   27   28 ar
  50   27   58 1
  51   28   38 1
  52   30   31 1
  53   30   59 1
  54   30   60 1
  55   31   32 1
  56   31   61 1
  57   32   33 1
  58   32   62 1
  59   32   63 1
  60   33   64 1
  61   33   65 1
  62   35   36 1
  63   35   66 1
  64   35   67 1
  65   36   37 1
  66   37   68 1
  67   37   69 1
  68   38   39 1
  69   38   44 2
  70   38   45 2
  71   39   40 2
  72   39   41 1
  73   40   43 1
  74   40   70 1
  75   41   42 1
  76   42   43 2
  77   42   71 1

#	End of record

