#	Name: ASD01811826
#	Creating user name:	WinNT
#	Creation time:	15. 06. 2019 19:27

#	Modifying user name:	WinNT
#	Modification time:	15. 06. 2019 19:27

#	Program:	/corina/corina34_cracker 3.40 0067  02.08.2006

@<TRIPOS>MOLECULE
ASD01811826
  54   57    0    0    0
SMALL
NO_CHARGES


@<TRIPOS>ATOM
   1 C1            -0.0167     1.3826     0.0096 C.ar    
   2 C2             0.0021    -0.0041     0.0020 C.ar    
   3 C3            -1.1845    -0.7153     0.0095 C.ar    
   4 C4            -2.3944    -0.0527     0.0247 C.ar    
   5 C5            -2.4229     1.3432     0.0329 C.ar    
   6 C6            -1.2204     2.0532     0.0305 C.ar    
   7 F7             1.1434     2.0750     0.0023 F       
   8 C8             1.3182    -0.7379    -0.0150 C.3     
   9 C9            -1.1553    -2.2220     0.0006 C.3     
  10 C10           -1.0079    -2.7299     1.4118 C.ar    
  11 C11           -2.1327    -2.9863     2.1740 C.ar    
  12 C12           -2.0002    -3.4520     3.4678 C.ar    
  13 C13           -0.7374    -3.6623     4.0023 C.ar    
  14 C14            0.3896    -3.4042     3.2355 C.ar    
  15 C15            0.2517    -2.9440     1.9402 C.ar    
  16 O16           -0.6045    -4.1199     5.2750 O.3     
  17 C17            0.7260    -4.3132     5.7593 C.3     
  18 C18           -3.5336     2.3145     0.0494 C.2     
  19 N19           -3.0546     3.5704     0.0524 N.am    
  20 C20           -1.5883     3.5159     0.0415 C.3     
  21 O21           -4.7131     2.0208     0.0586 O.2     
  22 C22           -3.8630     4.7921     0.0675 C.3     
  23 C23           -4.7334     4.8121     1.3256 C.3     
  24 C24           -5.5777     6.0879     1.3414 C.3     
  25 C25           -6.4730     6.1224     0.1012 C.3     
  26 C26           -5.6026     6.1024    -1.1569 C.3     
  27 C27           -4.7583     4.8265    -1.1727 C.3     
  28 O28           -3.8972     4.7799     2.4840 O.3     
  29 H29           -3.3178    -0.6127     0.0298 H       
  30 H30            1.6458    -0.9203     1.0085 H       
  31 H31            1.1970    -1.6894    -0.5328 H       
  32 H32            2.0638    -0.1348    -0.5330 H       
  33 H33           -2.0836    -2.6009    -0.4268 H       
  34 H34           -0.3124    -2.5655    -0.5990 H       
  35 H35           -3.1155    -2.8221     1.7576 H       
  36 H36           -2.8791    -3.6518     4.0629 H       
  37 H37            1.3738    -3.5671     3.6493 H       
  38 H38            1.1287    -2.7430     1.3428 H       
  39 H39            0.6896    -4.6799     6.7851 H       
  40 H40            1.2390    -5.0414     5.1312 H       
  41 H41            1.2642    -3.3658     5.7310 H       
  42 H42           -1.1889     3.9963     0.9347 H       
  43 H43           -1.2019     4.0055    -0.8524 H       
  44 H44           -3.2065     5.6622     0.0660 H       
  45 H45           -5.3899     3.9419     1.3271 H       
  46 H46           -6.1978     6.1022     2.2377 H       
  47 H47           -4.9212     6.9581     1.3399 H       
  48 H48           -7.1295     5.2523     0.1027 H       
  49 H49           -7.0745     7.0314     0.1125 H       
  50 H50           -6.2405     6.1270    -2.0404 H       
  51 H51           -4.9461     6.9725    -1.1584 H       
  52 H52           -4.1382     4.8123    -2.0690 H       
  53 H53           -5.4148     3.9564    -1.1712 H       
  54 H54           -4.3829     4.7903     3.3201 H       
@<TRIPOS>BOND
   1    1    2 ar
   2    1    7 1
   3    1    6 ar
   4    2    3 ar
   5    2    8 1
   6    3    4 ar
   7    3    9 1
   8    4    5 ar
   9    4   29 1
  10    5    6 ar
  11    5   18 1
  12    6   20 1
  13    8   30 1
  14    8   31 1
  15    8   32 1
  16    9   10 1
  17    9   33 1
  18    9   34 1
  19   10   11 ar
  20   10   15 ar
  21   11   12 ar
  22   11   35 1
  23   12   13 ar
  24   12   36 1
  25   13   14 ar
  26   13   16 1
  27   14   15 ar
  28   14   37 1
  29   15   38 1
  30   16   17 1
  31   17   39 1
  32   17   40 1
  33   17   41 1
  34   18   19 am
  35   18   21 2
  36   19   20 1
  37   19   22 1
  38   20   42 1
  39   20   43 1
  40   22   23 1
  41   22   27 1
  42   22   44 1
  43   23   24 1
  44   23   28 1
  45   23   45 1
  46   24   25 1
  47   24   46 1
  48   24   47 1
  49   25   26 1
  50   25   48 1
  51   25   49 1
  52   26   27 1
  53   26   50 1
  54   26   51 1
  55   27   52 1
  56   27   53 1
  57   28   54 1

#	End of record

