#	Name: ASD01008009
#	Creating user name:	WinNT
#	Creation time:	15. 06. 2019 18:56

#	Modifying user name:	WinNT
#	Modification time:	15. 06. 2019 18:56

#	Program:	/corina/corina34_cracker 3.40 0067  02.08.2006

@<TRIPOS>MOLECULE
ASD01008009
  33   35    0    0    0
SMALL
NO_CHARGES


@<TRIPOS>ATOM
   1 N1            -0.0161     1.3330     0.0094 N.am    
   2 C2             0.0021    -0.0041     0.0020 C.2     
   3 N3             1.1502    -0.7097    -0.0130 N.am    
   4 C4             2.4229     0.0316    -0.0193 C.3     
   5 C5             2.3341     1.5439    -0.0080 C.2     
   6 C6             3.5055     2.3089    -0.0072 C.2     
   7 C7             3.4423     3.8142     0.0178 C.3     
   8 C8             2.1530     4.2445     0.7251 C.3     
   9 C9             0.9601     3.6132     0.0036 C.3     
  10 C10            1.1064     2.1116     0.0028 C.2     
  11 O11            4.5859     1.7532    -0.0265 O.2     
  12 S12           -1.4864    -0.8498     0.0126 S.2     
  13 C13            3.1946    -0.3798    -1.2466 C.ar    
  14 C14            4.5611    -0.5693    -1.1715 C.ar    
  15 C15            5.2708    -0.9479    -2.3015 C.ar    
  16 C16            4.6060    -1.1354    -3.5049 C.ar    
  17 C17            3.2398    -0.9447    -3.5748 C.ar    
  18 C18            2.5337    -0.5727    -2.4454 C.ar    
  19 O19            6.6150    -1.1345    -2.2303 O.3     
  20 H20           -0.8785     1.7770     0.0158 H       
  21 H21            1.1386    -1.6796    -0.0191 H       
  22 H22            2.9969    -0.2781     0.8541 H       
  23 H23            4.3036     4.2069     0.5581 H       
  24 H24            3.4439     4.1968    -1.0029 H       
  25 H25            2.1742     3.9061     1.7610 H       
  26 H26            2.0649     5.3306     0.6952 H       
  27 H27            0.0387     3.8875     0.5171 H       
  28 H28            0.9243     3.9753    -1.0238 H       
  29 H29            5.0764    -0.4224    -0.2337 H       
  30 H30            5.1564    -1.4299    -4.3862 H       
  31 H31            2.7219    -1.0901    -4.5113 H       
  32 H32            1.4648    -0.4287    -2.5010 H       
  33 H33            6.8753    -2.0384    -2.0058 H       
@<TRIPOS>BOND
   1    1    2 am
   2    1   10 1
   3    1   20 1
   4    2    3 am
   5    2   12 2
   6    3    4 1
   7    3   21 1
   8    4    5 1
   9    4   13 1
  10    4   22 1
  11    5    6 1
  12    5   10 2
  13    6    7 1
  14    6   11 2
  15    7    8 1
  16    7   23 1
  17    7   24 1
  18    8    9 1
  19    8   25 1
  20    8   26 1
  21    9   10 1
  22    9   27 1
  23    9   28 1
  24   13   14 ar
  25   13   18 ar
  26   14   15 ar
  27   14   29 1
  28   15   16 ar
  29   15   19 1
  30   16   17 ar
  31   16   30 1
  32   17   18 ar
  33   17   31 1
  34   18   32 1
  35   19   33 1

#	End of record

