#	Name: ASD01230097
#	Creating user name:	WinNT
#	Creation time:	15. 06. 2019 19:11

#	Modifying user name:	WinNT
#	Modification time:	15. 06. 2019 19:11

#	Program:	/corina/corina34_cracker 3.40 0067  02.08.2006

@<TRIPOS>MOLECULE
ASD01230097
  51   55    0    0    0
SMALL
NO_CHARGES


@<TRIPOS>ATOM
   1 C1            -0.0166     1.3746     0.0096 C.2     
   2 C2             0.0021    -0.0041     0.0020 C.2     
   3 C3            -1.3406    -0.4406     0.0125 C.2     
   4 N4            -2.1091     0.6141     0.0255 N.2     
   5 N5            -1.3051     1.7596     0.0298 N.pl3   
   6 C6            -1.7856     3.1435     0.0438 C.3     
   7 C7             1.1858     2.2831     0.0030 C.3     
   8 O8             1.5787     2.5630     1.3481 O.3     
   9 C9             2.6536     3.3729     1.5200 C.ar    
  10 C10            3.0837     3.6817     2.8038 C.ar    
  11 C11            4.1816     4.5090     2.9655 C.ar    
  12 C12            4.8129     5.0003     1.8314 C.ar    
  13 C13            4.3307     4.6516     0.5853 C.ar    
  14 N14            3.2851     3.8564     0.4630 N.ar    
  15 C15            1.2024    -0.8636    -0.0145 C.2     
  16 O16            2.4802    -0.4528    -0.0245 O.3     
  17 N17            3.2224    -1.4118    -0.0367 N.2     
  18 C18            2.5310    -2.5226    -0.0360 C.2     
  19 N19            1.2248    -2.1843    -0.0164 N.2     
  20 C20            3.0820    -3.9009    -0.0486 C.ar    
  21 C21            2.2226    -4.9972    -0.0468 C.ar    
  22 C22            4.4605    -4.1027    -0.0681 C.ar    
  23 C23            4.9674    -5.3862    -0.0797 C.ar    
  24 C24            4.1095    -6.4714    -0.0721 C.ar    
  25 C25            2.7403    -6.2769    -0.0586 C.ar    
  26 C26            6.4581    -5.6060    -0.1013 C.3     
  27 N27            6.9604    -5.6821     1.2728 N.pl3   
  28 N28            7.0639    -6.7589     1.9717 N.2     
  29 N29            7.5422    -6.4560     3.1307 N.2     
  30 C30            7.7416    -5.1379     3.1465 C.2     
  31 N31            7.3747    -4.6830     1.9737 N.2     
  32 C32            6.0116     5.9048     1.9584 C.3     
  33 F33            7.1778     5.1326     1.9848 F       
  34 F34            6.0549     6.7778     0.8661 F       
  35 F35            5.9147     6.6438     3.1424 F       
  36 H36           -1.6735    -1.4680     0.0098 H       
  37 H37           -1.8991     3.4783     1.0748 H       
  38 H38           -1.0669     3.7828    -0.4689 H       
  39 H39           -2.7484     3.1989    -0.4643 H       
  40 H40            2.0072     1.7948    -0.5213 H       
  41 H41            0.9343     3.2149    -0.5035 H       
  42 H42            2.5683     3.2819     3.6646 H       
  43 H43            4.5385     4.7667     3.9517 H       
  44 H44            4.8181     5.0315    -0.3005 H       
  45 H45            1.1533    -4.8463    -0.0359 H       
  46 H46            5.1311    -3.2561    -0.0744 H       
  47 H47            4.5104    -7.4743    -0.0816 H       
  48 H48            2.0750    -7.1276    -0.0523 H       
  49 H49            6.6805    -6.5376    -0.6216 H       
  50 H50            6.9402    -4.7767    -0.6189 H       
  51 H51            8.1343    -4.5566     3.9677 H       
@<TRIPOS>BOND
   1    1    2 2
   2    1    7 1
   3    1    5 1
   4    2    3 1
   5    2   15 1
   6    3    4 2
   7    3   36 1
   8    4    5 1
   9    5    6 1
  10    6   37 1
  11    6   38 1
  12    6   39 1
  13    7    8 1
  14    7   40 1
  15    7   41 1
  16    8    9 1
  17    9   10 ar
  18    9   14 ar
  19   10   11 ar
  20   10   42 1
  21   11   12 ar
  22   11   43 1
  23   12   32 1
  24   12   13 ar
  25   13   14 ar
  26   13   44 1
  27   15   16 1
  28   15   19 2
  29   16   17 1
  30   17   18 2
  31   18   19 1
  32   18   20 1
  33   20   21 ar
  34   20   22 ar
  35   21   25 ar
  36   21   45 1
  37   22   23 ar
  38   22   46 1
  39   23   24 ar
  40   23   26 1
  41   24   25 ar
  42   24   47 1
  43   25   48 1
  44   26   27 1
  45   26   49 1
  46   26   50 1
  47   27   28 1
  48   27   31 1
  49   28   29 2
  50   29   30 1
  51   30   31 2
  52   30   51 1
  53   32   33 1
  54   32   34 1
  55   32   35 1

#	End of record

