#	Name: ASD09116483
#	Creating user name:	WinNT
#	Creation time:	15. 06. 2019 21:21

#	Modifying user name:	WinNT
#	Modification time:	15. 06. 2019 21:21

#	Program:	/corina/corina34_cracker 3.40 0067  02.08.2006

@<TRIPOS>MOLECULE
ASD09116483
  79   86    0    0    0
SMALL
NO_CHARGES


@<TRIPOS>ATOM
   1 N1            -0.0553     1.5000    -0.4021 N.2     
   2 N2            -0.0685     0.1765    -0.8709 N.pl3   
   3 C3             1.1991     1.8810    -0.3667 C.2     
   4 N4             1.9731     0.8731    -0.7860 N.2     
   5 C5             1.2228    -0.1630    -1.0941 C.2     
   6 N6             1.6735    -1.3824    -1.5628 N.pl3   
   7 C7            -1.1911    -0.6300    -1.0671 C.ar    
   8 N8             1.6534     3.1352     0.0419 N.pl3   
   9 C9             3.0250     3.3838     0.1396 C.ar    
  10 C10            3.5169     4.6657    -0.0713 C.ar    
  11 C11            3.8991     2.3506     0.4534 C.ar    
  12 C12            5.2540     2.5999     0.5495 C.ar    
  13 C13            5.7409     3.8761     0.3339 C.ar    
  14 C14            4.8730     4.9080     0.0265 C.ar    
  15 N15           -1.1469    -1.6258    -1.9395 N.ar    
  16 N16           -2.1550    -2.3911    -2.1649 N.ar    
  17 C17           -3.3061    -2.2261    -1.5333 C.ar    
  18 C18           -3.4392    -1.2136    -0.5789 C.ar    
  19 C19           -2.3593    -0.3904    -0.3391 C.ar    
  20 C20           -4.4856    -3.0717    -1.8301 C.ar    
  21 C21           -5.7128    -2.4548    -2.0782 C.ar    
  22 C22           -5.7938    -0.9529    -2.0930 C.3     
  23 C23           -5.7870    -0.3809    -0.6780 C.3     
  24 C24           -4.7271    -1.0687     0.1784 C.3     
  25 C25           -4.3854    -4.4583    -1.8599 C.ar    
  26 C26           -5.5091    -5.2196    -2.1170 C.ar    
  27 C27           -6.7276    -4.6050    -2.3417 C.ar    
  28 C28           -6.8298    -3.2248    -2.3214 C.ar    
  29 C29            7.2200     4.1444     0.4402 C.3     
  30 C30            7.7417     4.6733    -0.8987 C.3     
  31 C31            9.2307     5.0013    -0.7668 C.3     
  32 N32            9.4201     6.0083     0.2851 N.3     
  33 C33            8.9700     5.5051     1.5891 C.3     
  34 C34            7.4732     5.1923     1.5276 C.3     
  35 C35           10.8201     6.4493     0.3457 C.3     
  36 C36           11.2476     7.0891    -1.0104 C.3     
  37 C37           10.9831     7.5845     1.3821 C.3     
  38 C38           11.4937     8.8034     0.5545 C.3     
  39 C39           12.7890     7.2859    -0.8805 C.3     
  40 C40           12.9519     8.4212     0.1559 C.3     
  41 C41           10.7487     8.5631    -0.8058 C.3     
  42 H42            2.6233    -1.5315    -1.6916 H       
  43 H43            1.0401    -2.0892    -1.7629 H       
  44 H44            1.0171     3.8347     0.2582 H       
  45 H45            2.8397     5.4719    -0.3117 H       
  46 H46            3.5195     1.3538     0.6223 H       
  47 H47            5.9341     1.7972     0.7938 H       
  48 H48            5.2566     5.9035    -0.1413 H       
  49 H49           -2.4170     0.4147     0.3785 H       
  50 H50           -4.9405    -0.5552    -2.6425 H       
  51 H51           -6.7125    -0.6503    -2.5955 H       
  52 H52           -5.5738     0.6871    -0.7237 H       
  53 H53           -6.7671    -0.5313    -0.2254 H       
  54 H54           -5.0858    -2.0564     0.4678 H       
  55 H55           -4.5506    -0.4752     1.0754 H       
  56 H56           -3.4339    -4.9376    -1.6832 H       
  57 H57           -5.4359    -6.2968    -2.1430 H       
  58 H58           -7.6045    -5.2055    -2.5337 H       
  59 H59           -7.7845    -2.7512    -2.4967 H       
  60 H60            7.7403     3.2210     0.6947 H       
  61 H61            7.6030     3.9145    -1.6687 H       
  62 H62            7.1934     5.5748    -1.1723 H       
  63 H63            9.7802     4.0966    -0.5067 H       
  64 H64            9.6019     5.3916    -1.7144 H       
  65 H65            9.5207     4.5981     1.8382 H       
  66 H66            9.1518     6.2615     2.3527 H       
  67 H67            6.9206     6.1018     1.2921 H       
  68 H68            7.1426     4.8041     2.4910 H       
  69 H69           11.4714     5.6108     0.5923 H       
  70 H70           10.9071     6.5741    -1.9087 H       
  71 H71           10.0244     7.8155     1.8466 H       
  72 H72           11.7158     7.3055     2.1393 H       
  73 H73           11.3676     9.7813     1.0192 H       
  74 H74           13.2597     6.3715    -0.5195 H       
  75 H75           13.2164     7.5818    -1.8385 H       
  76 H76           13.4595     9.2752    -0.2926 H       
  77 H77           13.5028     8.0649     1.0264 H       
  78 H78           11.1069     9.2287    -1.5912 H       
  79 H79            9.6658     8.6163    -0.6937 H       
@<TRIPOS>BOND
   1    1    2 1
   2    1    3 2
   3    2    7 1
   4    2    5 1
   5    3    4 1
   6    3    8 1
   7    4    5 2
   8    5    6 1
   9    6   42 1
  10    6   43 1
  11    7   15 ar
  12    7   19 ar
  13    8    9 1
  14    8   44 1
  15    9   10 ar
  16    9   11 ar
  17   10   14 ar
  18   10   45 1
  19   11   12 ar
  20   11   46 1
  21   12   13 ar
  22   12   47 1
  23   13   14 ar
  24   13   29 1
  25   14   48 1
  26   15   16 ar
  27   16   17 ar
  28   17   18 ar
  29   17   20 1
  30   18   19 ar
  31   18   24 1
  32   19   49 1
  33   20   21 ar
  34   20   25 ar
  35   21   22 1
  36   21   28 ar
  37   22   23 1
  38   22   50 1
  39   22   51 1
  40   23   24 1
  41   23   52 1
  42   23   53 1
  43   24   54 1
  44   24   55 1
  45   25   26 ar
  46   25   56 1
  47   26   27 ar
  48   26   57 1
  49   27   28 ar
  50   27   58 1
  51   28   59 1
  52   29   30 1
  53   29   34 1
  54   29   60 1
  55   30   31 1
  56   30   61 1
  57   30   62 1
  58   31   32 1
  59   31   63 1
  60   31   64 1
  61   32   33 1
  62   32   35 1
  63   33   34 1
  64   33   65 1
  65   33   66 1
  66   34   67 1
  67   34   68 1
  68   35   36 1
  69   35   37 1
  70   35   69 1
  71   36   39 1
  72   36   41 1
  73   36   70 1
  74   37   38 1
  75   37   71 1
  76   37   72 1
  77   38   40 1
  78   38   41 1
  79   38   73 1
  80   39   40 1
  81   39   74 1
  82   39   75 1
  83   40   76 1
  84   40   77 1
  85   41   78 1
  86   41   79 1

#	End of record

