#	Name: ASD03930140
#	Creating user name:	WinNT
#	Creation time:	15. 06. 2019 20:47

#	Modifying user name:	WinNT
#	Modification time:	15. 06. 2019 20:47

#	Program:	/corina/corina34_cracker 3.40 0067  02.08.2006

@<TRIPOS>MOLECULE
ASD03930140
  39   40    0    0    0
SMALL
NO_CHARGES


@<TRIPOS>ATOM
   1 C1            -0.0189     1.5391     0.0105 C.3     
   2 C2             0.0021    -0.0041     0.0020 C.3     
   3 C3             1.3626    -0.3210     0.6579 C.3     
   4 C4             2.2313     0.8854     0.3713 C.ar    
   5 C5             3.6044     1.0321     0.4322 C.ar    
   6 C6             4.1914     2.2580     0.1191 C.ar    
   7 C7             3.3842     3.3339    -0.2561 C.ar    
   8 C8             2.0166     3.1760    -0.3138 C.ar    
   9 C9             1.4369     1.9555    -0.0012 C.ar    
  10 C10            5.6586     2.4175     0.1845 C.2     
  11 O11            6.3575     1.4794     0.5117 O.2     
  12 O12            6.2215     3.6032    -0.1187 O.3     
  13 S13           -2.5100    -1.0042     0.0653 S.o2    
  14 O14           -3.3369    -1.4431     1.1344 O.2     
  15 O15           -2.8726     0.1171    -0.7287 O.2     
  16 N16           -1.1000    -0.5441     0.8020 N.am    
  17 C17           -2.0350    -2.4029    -0.9876 C.3     
  18 C18           -1.4532    -3.5203    -0.1194 C.3     
  19 C19           -3.2671    -2.9234    -1.7305 C.3     
  20 C20            7.6685     3.6872    -0.0329 C.3     
  21 H21           -0.5269     1.9153    -0.8774 H       
  22 H22           -0.5099     1.9057     0.9120 H       
  23 H23           -0.0346    -0.3864    -1.0181 H       
  24 H24            1.2424    -0.4536     1.7331 H       
  25 H25            1.7983    -1.2152     0.2122 H       
  26 H26            4.2236     0.1963     0.7230 H       
  27 H27            3.8302     4.2868    -0.4999 H       
  28 H28            1.3921     4.0081    -0.6036 H       
  29 H29           -1.0038    -0.6322     1.7632 H       
  30 H30           -1.2864    -2.0765    -1.7095 H       
  31 H31           -2.2018    -3.8467     0.6025 H       
  32 H32           -1.1678    -4.3608    -0.7521 H       
  33 H33           -0.5754    -3.1495     0.4098 H       
  34 H34           -3.6817    -2.1273    -2.3490 H       
  35 H35           -2.9818    -3.7639    -2.3632 H       
  36 H36           -4.0157    -3.2498    -1.0086 H       
  37 H37            7.9856     3.4645     0.9860 H       
  38 H38            8.1156     2.9670    -0.7181 H       
  39 H39            7.9907     4.6931    -0.3019 H       
@<TRIPOS>BOND
   1    1    2 1
   2    1    9 1
   3    1   21 1
   4    1   22 1
   5    2    3 1
   6    2   16 1
   7    2   23 1
   8    3    4 1
   9    3   24 1
  10    3   25 1
  11    4    5 ar
  12    4    9 ar
  13    5    6 ar
  14    5   26 1
  15    6    7 ar
  16    6   10 1
  17    7    8 ar
  18    7   27 1
  19    8    9 ar
  20    8   28 1
  21   10   11 2
  22   10   12 1
  23   12   20 1
  24   13   14 2
  25   13   15 2
  26   13   16 am
  27   13   17 1
  28   16   29 1
  29   17   18 1
  30   17   19 1
  31   17   30 1
  32   18   31 1
  33   18   32 1
  34   18   33 1
  35   19   34 1
  36   19   35 1
  37   19   36 1
  38   20   37 1
  39   20   38 1
  40   20   39 1

#	End of record

