#	Name: ASD01900877
#	Creating user name:	WinNT
#	Creation time:	15. 06. 2019 19:52

#	Modifying user name:	WinNT
#	Modification time:	15. 06. 2019 19:52

#	Program:	/corina/corina34_cracker 3.40 0067  02.08.2006

@<TRIPOS>MOLECULE
ASD01900877
  54   58    0    0    0
SMALL
NO_CHARGES


@<TRIPOS>ATOM
   1 C1             0.1352     0.8578    -0.2644 C.ar    
   2 C2             0.3165    -0.5079    -0.3025 C.ar    
   3 C3             1.5924    -1.0463    -0.4106 C.ar    
   4 C4             2.7009    -0.2190    -0.4733 C.ar    
   5 C5             2.5343     1.1536    -0.4303 C.ar    
   6 C6             1.2419     1.7016    -0.3360 C.ar    
   7 N7             3.6181     2.0238    -0.4707 N.pl3   
   8 C8             3.4287     3.3637    -1.0380 C.3     
   9 N9             2.1710     3.9422    -0.5637 N.am    
  10 C10            1.0994     3.1666    -0.3049 C.2     
  11 C11            2.0795     5.3252    -0.3744 C.ar    
  12 C12            1.4321     6.1149    -1.3157 C.ar    
  13 C13            1.3432     7.4800    -1.1263 C.ar    
  14 C14            1.8984     8.0610     0.0001 C.ar    
  15 C15            2.5439     7.2767     0.9395 C.ar    
  16 C16            2.6308     5.9104     0.7581 C.ar    
  17 Br17           1.7752     9.9306     0.2556 Br      
  18 O18            0.0235     3.6727    -0.0487 O.2     
  19 C19            4.5941     4.2620    -0.6129 C.3     
  20 C20            3.4020     3.2673    -2.5660 C.3     
  21 C21            3.2734     4.6728    -3.1578 C.3     
  22 N22            4.4083     5.4957    -2.7210 N.3     
  23 C23            4.4300     5.6393    -1.2598 C.3     
  24 C24            4.3904     6.8090    -3.3788 C.3     
  25 C25            5.5049     7.6615    -2.8291 C.ar    
  26 C26            6.7830     7.5425    -3.3429 C.ar    
  27 C27            7.8069     8.3228    -2.8401 C.ar    
  28 C28            7.5533     9.2250    -1.8215 C.ar    
  29 C29            6.2716     9.3447    -1.3066 C.ar    
  30 C30            5.2472     8.5654    -1.8158 C.ar    
  31 F31            8.5538     9.9878    -1.3291 F       
  32 F32            6.0217    10.2242    -0.3120 F       
  33 F33            1.7530    -2.3870    -0.4545 F       
  34 H34           -0.8591     1.2717    -0.1841 H       
  35 H35           -0.5395    -1.1642    -0.2476 H       
  36 H36            3.6907    -0.6433    -0.5550 H       
  37 H37            4.4839     1.7501    -0.1297 H       
  38 H38            0.9988     5.6619    -2.1952 H       
  39 H39            0.8402     8.0946    -1.8581 H       
  40 H40            2.9767     7.7329     1.8176 H       
  41 H41            3.1309     5.2981     1.4939 H       
  42 H42            4.5958     4.3671     0.4721 H       
  43 H43            5.5344     3.8167    -0.9379 H       
  44 H44            4.3254     2.8073    -2.9179 H       
  45 H45            2.5510     2.6618    -2.8778 H       
  46 H46            3.2683     4.6095    -4.2460 H       
  47 H47            2.3430     5.1267    -2.8165 H       
  48 H48            3.4950     6.0887    -0.9251 H       
  49 H49            5.2640     6.2784    -0.9699 H       
  50 H50            4.5276     6.6796    -4.4524 H       
  51 H51            3.4337     7.2965    -3.1910 H       
  52 H52            6.9815     6.8387    -4.1377 H       
  53 H53            8.8050     8.2285    -3.2417 H       
  54 H54            4.2476     8.6605    -1.4184 H       
@<TRIPOS>BOND
   1    1    2 ar
   2    1    6 ar
   3    1   34 1
   4    2    3 ar
   5    2   35 1
   6    3    4 ar
   7    3   33 1
   8    4    5 ar
   9    4   36 1
  10    5    7 1
  11    5    6 ar
  12    6   10 1
  13    7    8 1
  14    7   37 1
  15    8    9 1
  16    8   20 1
  17    8   19 1
  18    9   10 am
  19    9   11 1
  20   10   18 2
  21   11   12 ar
  22   11   16 ar
  23   12   13 ar
  24   12   38 1
  25   13   14 ar
  26   13   39 1
  27   14   15 ar
  28   14   17 1
  29   15   16 ar
  30   15   40 1
  31   16   41 1
  32   19   23 1
  33   19   42 1
  34   19   43 1
  35   20   21 1
  36   20   44 1
  37   20   45 1
  38   21   22 1
  39   21   46 1
  40   21   47 1
  41   22   23 1
  42   22   24 1
  43   23   48 1
  44   23   49 1
  45   24   25 1
  46   24   50 1
  47   24   51 1
  48   25   26 ar
  49   25   30 ar
  50   26   27 ar
  51   26   52 1
  52   27   28 ar
  53   27   53 1
  54   28   29 ar
  55   28   31 1
  56   29   30 ar
  57   29   32 1
  58   30   54 1

#	End of record

