#	Name: ASD01901320
#	Creating user name:	WinNT
#	Creation time:	15. 06. 2019 19:53

#	Modifying user name:	WinNT
#	Modification time:	15. 06. 2019 19:53

#	Program:	/corina/corina34_cracker 3.40 0067  02.08.2006

@<TRIPOS>MOLECULE
ASD01901320
  38   41    0    0    0
SMALL
NO_CHARGES


@<TRIPOS>ATOM
   1 C1            -0.0166     1.3766     0.0096 C.ar    
   2 C2             0.0021    -0.0041     0.0020 C.ar    
   3 C3             1.2101    -0.6821    -0.0127 C.ar    
   4 C4             2.4037     0.0209    -0.0203 C.ar    
   5 C5             2.3948     1.4010    -0.0128 C.ar    
   6 C6             1.1830     2.0878     0.0020 C.ar    
   7 C7             1.1686     3.5719     0.0096 C.2     
   8 N8             0.8521     5.5892     1.1947 N.2     
   9 C9             0.8635     4.2787     1.1930 C.2     
  10 C10            1.4561     4.2735    -1.1276 C.2     
  11 C11            1.1281     6.2860     0.0821 C.2     
  12 N12            1.1784     7.5894    -0.1534 N.2     
  13 N13            1.4344     5.6363    -1.0858 N.pl3   
  14 C14            1.6708     6.5963    -2.0326 C.2     
  15 C15            1.5065     7.7943    -1.4325 C.2     
  16 C16            1.6664     9.1385    -2.0946 C.3     
  17 O17            2.0210     8.9545    -3.4666 O.3     
  18 C18            2.2041    10.0759    -4.2123 C.ar    
  19 C19            2.0514    11.3275    -3.6338 C.ar    
  20 C20            2.5497     9.9708    -5.5517 C.ar    
  21 C21            2.7352    11.1122    -6.3076 C.ar    
  22 C22            2.5773    12.3585    -5.7300 C.ar    
  23 C23            2.2380    12.4659    -4.3939 C.ar    
  24 Cl24          -1.5308     2.2257     0.0214 Cl      
  25 F25            1.2241    -2.0330    -0.0192 F       
  26 H26           -0.9262    -0.5561     0.0079 H       
  27 H27            3.3431    -0.5120    -0.0318 H       
  28 H28            3.3261     1.9478    -0.0181 H       
  29 H29            0.6383     3.7375     2.1001 H       
  30 H30            1.6971     3.7567    -2.0447 H       
  31 H31            1.9387     6.4271    -3.0651 H       
  32 H32            0.7271     9.6881    -2.0326 H       
  33 H33            2.4509     9.7016    -1.5890 H       
  34 H34            1.7864    11.4120    -2.5902 H       
  35 H35            2.6739     8.9976    -6.0031 H       
  36 H36            3.0043    11.0309    -7.3504 H       
  37 H37            2.7231    13.2496    -6.3225 H       
  38 H38            2.1192    13.4405    -3.9441 H       
@<TRIPOS>BOND
   1    1    2 ar
   2    1    6 ar
   3    1   24 1
   4    2    3 ar
   5    2   26 1
   6    3    4 ar
   7    3   25 1
   8    4    5 ar
   9    4   27 1
  10    5    6 ar
  11    5   28 1
  12    6    7 1
  13    7   10 2
  14    7    9 1
  15    8    9 2
  16    8   11 1
  17    9   29 1
  18   10   13 1
  19   10   30 1
  20   11   13 1
  21   11   12 2
  22   12   15 1
  23   13   14 1
  24   14   15 2
  25   14   31 1
  26   15   16 1
  27   16   17 1
  28   16   32 1
  29   16   33 1
  30   17   18 1
  31   18   20 ar
  32   18   19 ar
  33   19   23 ar
  34   19   34 1
  35   20   21 ar
  36   20   35 1
  37   21   22 ar
  38   21   36 1
  39   22   23 ar
  40   22   37 1
  41   23   38 1

#	End of record

