#	Name: ASD03910014
#	Creating user name:	WinNT
#	Creation time:	15. 06. 2019 20:47

#	Modifying user name:	WinNT
#	Modification time:	15. 06. 2019 20:47

#	Program:	/corina/corina34_cracker 3.40 0067  02.08.2006

@<TRIPOS>MOLECULE
ASD03910014
  50   52    0    0    0
SMALL
NO_CHARGES


@<TRIPOS>ATOM
   1 C1             0.1758     1.7967    -0.7901 C.3     
   2 C2             0.3197     0.3059    -0.5218 C.3     
   3 C3             0.7884     0.0395     0.9103 C.3     
   4 C4             1.6314     1.2046     1.4253 C.3     
   5 C5             0.7674     2.4701     1.5363 C.3     
   6 C6            -0.2991     2.5118     0.4742 C.3     
   7 O7             1.4394     2.3306    -1.1907 O.3     
   8 O8            -0.9436    -0.3300    -0.7262 O.3     
   9 P9            -1.2435    -1.3039    -1.9726 P.3     
  10 O10           -0.3750    -2.6511    -1.8222 O.3     
  11 O11           -2.8099    -1.6753    -1.9986 O.3     
  12 O12           -0.8779    -0.6193    -3.2328 O.2     
  13 Na13          -0.9275    -3.8044    -0.2974 Du      
  14 Na14          -3.3313    -2.8802    -3.4941 Du      
  15 P15            1.6782     3.0445    -2.6139 P.3     
  16 O16            0.8055     4.3953    -2.6899 O.3     
  17 O17            3.2389     3.4040    -2.7788 O.3     
  18 Na18           1.2529     5.7284    -1.2818 Du      
  19 C19            3.7889     3.9518    -3.9785 C.3     
  20 O20            1.2654     2.1287    -3.7007 O.2     
  21 O21           -0.5706     3.9132     0.0869 O.3     
  22 P22           -0.4930     5.0655     1.2146 P.3     
  23 O23           -1.3531     6.3272     0.7044 O.3     
  24 O24           -1.0207     4.6558     2.6689 O.3     
  25 O25            0.9182     5.4929     1.3425 O.2     
  26 Na26          -1.3742     7.8592     1.9743 Du      
  27 O27            0.0189     2.4193     2.7353 O.3     
  28 P28           -0.2983     3.6198     3.7410 P.3     
  29 O29            0.9413     4.1985     4.3057 O.2     
  30 O30           -1.3149     3.1651     4.9037 O.3     
  31 Na31          -1.7602     4.6082     6.1995 Du      
  32 O32            2.1309     0.9462     2.7462 O.3     
  33 P33            3.1950    -0.2293     3.0718 P.3     
  34 O34            4.5310     0.1222     2.5407 O.2     
  35 O35            3.2743    -0.4913     4.6584 O.3     
  36 Na36           4.5560    -1.9215     5.1796 Du      
  37 P37            1.7985    -1.4921     0.8788 P.3     
  38 O38            2.8438    -1.4388    -0.3446 O.3     
  39 O39            2.6024    -1.5464     2.3005 O.3     
  40 O40            0.9208    -2.6761     0.7443 O.2     
  41 Na41           4.0038    -3.0493    -0.4888 Du      
  42 H42           -0.5516     1.9524    -1.5868 H       
  43 H43            1.0456    -0.1134    -1.2184 H       
  44 H44           -0.0771    -0.0995     1.5581 H       
  45 H45            2.4605     1.3865     0.7415 H       
  46 H46            1.3888     3.3646     1.4943 H       
  47 H47           -1.2070     2.0369     0.8461 H       
  48 H48            3.6205     3.2603    -4.8042 H       
  49 H49            3.3060     4.9040    -4.1979 H       
  50 H50            4.8597     4.1088    -3.8488 H       
@<TRIPOS>BOND
   1    1    2 1
   2    1    7 1
   3    1    6 1
   4    1   42 1
   5    2    3 1
   6    2    8 1
   7    2   43 1
   8    3    4 1
   9    3   37 1
  10    3   44 1
  11    4    5 1
  12    4   32 1
  13    4   45 1
  14    5    6 1
  15    5   27 1
  16    5   46 1
  17    6   21 1
  18    6   47 1
  19    7   15 1
  20    8    9 1
  21    9   10 1
  22    9   11 1
  23    9   12 2
  24   10   13 1
  25   11   14 1
  26   15   16 1
  27   15   17 1
  28   15   20 2
  29   16   18 1
  30   17   19 1
  31   19   48 1
  32   19   49 1
  33   19   50 1
  34   21   22 1
  35   22   23 1
  36   22   24 1
  37   22   25 2
  38   23   26 1
  39   24   28 1
  40   27   28 1
  41   28   29 2
  42   28   30 1
  43   30   31 1
  44   32   33 1
  45   33   34 2
  46   33   35 1
  47   33   39 1
  48   35   36 1
  49   37   38 1
  50   37   39 1
  51   37   40 2
  52   38   41 1

#	End of record

