#	Name: ASD01815627
#	Creating user name:	WinNT
#	Creation time:	15. 06. 2019 19:33

#	Modifying user name:	WinNT
#	Modification time:	15. 06. 2019 19:33

#	Program:	/corina/corina34_cracker 3.40 0067  02.08.2006

@<TRIPOS>MOLECULE
ASD01815627
  34   36    0    0    0
SMALL
NO_CHARGES


@<TRIPOS>ATOM
   1 C1             1.1526     2.2496    -0.5129 C.ar    
   2 C2             0.7771     0.9141    -0.4978 C.ar    
   3 C3             1.7203    -0.0811    -0.3460 C.ar    
   4 C4             3.0672     0.2523    -0.2063 C.ar    
   5 C5             3.4429     1.6059    -0.2227 C.ar    
   6 C6             2.4775     2.6008    -0.3766 C.ar    
   7 N7             4.0203    -0.7322    -0.0534 N.pl3   
   8 C8             5.3246    -0.4640     0.0851 C.2     
   9 C9             5.8142     0.8268     0.0846 C.2     
  10 C10            4.8706     1.9450    -0.0741 C.2     
  11 O11            5.2525     3.1021    -0.0815 O.2     
  12 C12            7.2536     1.0800     0.2398 C.2     
  13 O13            8.0240     0.1487     0.3702 O.2     
  14 O14            7.7195     2.3450     0.2377 O.3     
  15 C15            3.5871    -2.1316    -0.0416 C.3     
  16 C16            3.4443    -2.6253    -1.4583 C.ar    
  17 C17            4.5250    -2.5729    -2.3217 C.ar    
  18 C18            4.3939    -3.0269    -3.6233 C.ar    
  19 C19            3.1846    -3.5326    -4.0601 C.ar    
  20 C20            2.1035    -3.5850    -3.1963 C.ar    
  21 C21            2.2359    -3.1355    -1.8937 C.ar    
  22 F22            1.3396    -1.3773    -0.3323 F       
  23 F23            5.7075    -2.0784    -1.8947 F       
  24 F24            0.9209    -4.0791    -3.6235 F       
  25 H25            0.4031     3.0173    -0.6367 H       
  26 H26           -0.2648     0.6508    -0.6056 H       
  27 H27            2.7673     3.6411    -0.3894 H       
  28 H28            6.0168    -1.2848     0.2016 H       
  29 H29            8.6737     2.4616     0.3429 H       
  30 H30            4.3278    -2.7368     0.4811 H       
  31 H31            2.6274    -2.2106     0.4692 H       
  32 H32            5.2368    -2.9854    -4.2972 H       
  33 H33            3.0823    -3.8867    -5.0752 H       
  34 H34            1.3929    -3.1767    -1.2200 H       
@<TRIPOS>BOND
   1    1    2 ar
   2    1    6 ar
   3    1   25 1
   4    2    3 ar
   5    2   26 1
   6    3    4 ar
   7    3   22 1
   8    4    5 ar
   9    4    7 1
  10    5    6 ar
  11    5   10 1
  12    6   27 1
  13    7    8 1
  14    7   15 1
  15    8    9 2
  16    8   28 1
  17    9   10 1
  18    9   12 1
  19   10   11 2
  20   12   13 2
  21   12   14 1
  22   14   29 1
  23   15   16 1
  24   15   30 1
  25   15   31 1
  26   16   17 ar
  27   16   21 ar
  28   17   18 ar
  29   17   23 1
  30   18   19 ar
  31   18   32 1
  32   19   20 ar
  33   19   33 1
  34   20   21 ar
  35   20   24 1
  36   21   34 1

#	End of record

