#	Name: ASD01885585
#	Creating user name:	WinNT
#	Creation time:	15. 06. 2019 19:49

#	Modifying user name:	WinNT
#	Modification time:	15. 06. 2019 19:49

#	Program:	/corina/corina34_cracker 3.40 0067  02.08.2006

@<TRIPOS>MOLECULE
ASD01885585
  63   68    0    0    0
SMALL
NO_CHARGES


@<TRIPOS>ATOM
   1 C1            -0.0168     1.3907     0.0097 C.ar    
   2 C2             0.0021    -0.0041     0.0020 C.ar    
   3 C3            -1.1827    -0.7088     0.0100 C.ar    
   4 C4            -2.3961    -0.0310     0.0257 C.ar    
   5 C5            -2.4183     1.3606     0.0334 C.ar    
   6 C6            -1.2359     2.0696     0.0308 C.ar    
   7 C7             1.2551     2.1498     0.0016 C.2     
   8 C8             2.1445     2.0668     1.1007 C.2     
   9 C9             3.3000     2.7572     1.0911 C.2     
  10 N10            3.6346     3.5462     0.0284 N.pl3   
  11 C11            2.7994     3.6541    -1.0574 C.2     
  12 C12            1.5884     2.9419    -1.0813 C.2     
  13 C13            4.7083     4.3368    -0.2489 C.2     
  14 N14            4.5098     4.8725    -1.4255 N.2     
  15 N15            3.3865     4.4772    -1.9128 N.2     
  16 C16            5.9064     4.5553     0.6386 C.3     
  17 N17           -3.5941    -0.7470     0.0333 N.pl3   
  18 C18           -3.5721    -2.2118     0.0248 C.3     
  19 C19            6.9761     3.5094     0.3180 C.3     
  20 C20           -4.8775    -2.7380    -0.5751 C.3     
  21 C21           -4.8545    -4.2678    -0.5841 C.3     
  22 C22           -4.7071    -4.7841     0.8486 C.3     
  23 C23           -3.4016    -4.2579     1.4486 C.3     
  24 C24           -3.4247    -2.7281     1.4575 C.3     
  25 Cl25          -3.9355     2.2039     0.0525 Cl      
  26 O26           -5.8101    -4.3289     1.6348 O.3     
  27 C27           -4.6840    -6.3139     0.8397 C.3     
  28 C28           -4.5420    -7.0261     2.1863 C.3     
  29 C29           -5.8832    -7.0420     1.4503 C.3     
  30 C30            8.3227     3.6337     1.0337 C.3     
  31 C31            7.3495     2.5191     1.4228 C.3     
  32 C32            0.6612     3.0492    -2.2645 C.3     
  33 F33           -0.1610     4.1709    -2.1124 F       
  34 F34            1.4140     3.1783    -3.4366 F       
  35 F35           -0.1300     1.8982    -2.3428 F       
  36 H36            0.9444    -0.5316    -0.0105 H       
  37 H37           -1.1681    -1.7887     0.0037 H       
  38 H38           -1.2531     3.1495     0.0371 H       
  39 H39            1.8946     1.4477     1.9496 H       
  40 H40            3.9706     2.6863     1.9347 H       
  41 H41            6.3101     5.5528     0.4650 H       
  42 H42            5.6074     4.4609     1.6825 H       
  43 H43           -4.4413    -0.2748     0.0443 H       
  44 H44           -2.7307    -2.5591    -0.5749 H       
  45 H45            6.9839     3.1445    -0.7091 H       
  46 H46           -5.7189    -2.3908     0.0245 H       
  47 H47           -4.9825    -2.3703    -1.5958 H       
  48 H48           -5.7845    -4.6427    -1.0115 H       
  49 H49           -4.0131    -4.6151    -1.1838 H       
  50 H50           -3.2966    -4.6256     2.4693 H       
  51 H51           -2.5603    -4.6051     0.8489 H       
  52 H52           -2.4947    -2.3532     1.8849 H       
  53 H53           -4.2660    -2.3808     2.0572 H       
  54 H54           -5.8867    -3.3662     1.6849 H       
  55 H55           -4.2037    -6.7718    -0.0250 H       
  56 H56           -3.9685    -7.9528     2.2075 H       
  57 H57           -4.4649    -6.4049     3.0786 H       
  58 H58           -6.6885    -6.4312     1.8583 H       
  59 H59           -6.1921    -7.9791     0.9872 H       
  60 H60            9.2163     3.3502     0.4776 H       
  61 H61            8.4465     4.4606     1.7330 H       
  62 H62            6.8330     2.6127     2.3782 H       
  63 H63            7.6028     1.5023     1.1228 H       
@<TRIPOS>BOND
   1    1    2 ar
   2    1    7 1
   3    1    6 ar
   4    2    3 ar
   5    2   36 1
   6    3    4 ar
   7    3   37 1
   8    4    5 ar
   9    4   17 1
  10    5    6 ar
  11    5   25 1
  12    6   38 1
  13    7    8 1
  14    7   12 2
  15    8    9 2
  16    8   39 1
  17    9   10 1
  18    9   40 1
  19   10   11 1
  20   10   13 1
  21   11   12 1
  22   11   15 2
  23   12   32 1
  24   13   14 2
  25   13   16 1
  26   14   15 1
  27   16   19 1
  28   16   41 1
  29   16   42 1
  30   17   18 1
  31   17   43 1
  32   18   20 1
  33   18   24 1
  34   18   44 1
  35   19   30 1
  36   19   31 1
  37   19   45 1
  38   20   21 1
  39   20   46 1
  40   20   47 1
  41   21   22 1
  42   21   48 1
  43   21   49 1
  44   22   23 1
  45   22   26 1
  46   22   27 1
  47   23   24 1
  48   23   50 1
  49   23   51 1
  50   24   52 1
  51   24   53 1
  52   26   54 1
  53   27   28 1
  54   27   29 1
  55   27   55 1
  56   28   29 1
  57   28   56 1
  58   28   57 1
  59   29   58 1
  60   29   59 1
  61   30   31 1
  62   30   60 1
  63   30   61 1
  64   31   62 1
  65   31   63 1
  66   32   33 1
  67   32   34 1
  68   32   35 1

#	End of record

