#	Name: ASD01913923
#	Creating user name:	WinNT
#	Creation time:	15. 06. 2019 20:02

#	Modifying user name:	WinNT
#	Modification time:	15. 06. 2019 20:02

#	Program:	/corina/corina34_cracker 3.40 0067  02.08.2006

@<TRIPOS>MOLECULE
ASD01913923
  43   45    0    0    0
SMALL
NO_CHARGES


@<TRIPOS>ATOM
   1 C1            -0.0173     1.4278     0.0099 C.ar    
   2 C2             0.0021    -0.0041     0.0020 C.1     
   3 C3             0.0180    -1.1779    -0.0044 C.1     
   4 C4             0.0374    -2.6098    -0.0123 C.ar    
   5 C5            -1.1552    -3.3455    -0.0049 C.ar    
   6 C6             0.0738    -5.2913    -0.0270 C.ar    
   7 N7             1.2234    -4.6330    -0.0401 N.ar    
   8 C8             1.2495    -3.3127    -0.0335 C.ar    
   9 N9            -1.0933    -4.6646    -0.0125 N.ar    
  10 C10            1.1563     3.5243     0.0099 C.ar    
  11 C11           -1.2353     2.1128     0.0310 C.ar    
  12 C12           -0.0549     4.1980     0.0250 C.ar    
  13 N13            0.0926    -6.6796    -0.0350 N.am    
  14 C14            1.1816     2.1458     0.0023 C.ar    
  15 C15           -1.2474     3.4915     0.0385 C.ar    
  16 C16            1.2760    -7.3020    -0.0558 C.2     
  17 O17            1.4006    -8.6371    -0.1100 O.3     
  18 C18            0.2277    -9.4281     0.2270 C.3     
  19 C19           -0.9785    -8.8309    -0.5107 C.3     
  20 C20           -1.1809    -7.3944    -0.0145 C.3     
  21 C21           -0.7118    -8.8286    -2.0172 C.3     
  22 C22            0.4377   -10.8777    -0.2149 C.3     
  23 C23           -0.0133    -9.3772     1.7371 C.3     
  24 O24            2.2858    -6.6271    -0.0245 O.2     
  25 F25           -0.0733     5.5488     0.0324 F       
  26 H26           -2.1103    -2.8415     0.0073 H       
  27 H27            2.1905    -2.7828    -0.0446 H       
  28 H28            2.0821     4.0803    -0.0009 H       
  29 H29           -2.1650     1.5634     0.0411 H       
  30 H30            2.1260     1.6219    -0.0091 H       
  31 H31           -2.1880     4.0221     0.0499 H       
  32 H32           -1.8693    -9.4212    -0.2959 H       
  33 H33           -1.5756    -7.4145     1.0014 H       
  34 H34           -1.8889    -6.8826    -0.6664 H       
  35 H35           -0.5489    -9.8507    -2.3590 H       
  36 H36           -1.5703    -8.4039    -2.5376 H       
  37 H37            0.1739    -8.2294    -2.2285 H       
  38 H38            1.3093   -11.2899     0.2935 H       
  39 H39           -0.4436   -11.4665     0.0397 H       
  40 H40            0.5970   -10.9095    -1.2928 H       
  41 H41           -0.1741    -8.3439     2.0447 H       
  42 H42           -0.8930    -9.9712     1.9849 H       
  43 H43            0.8556    -9.7802     2.2574 H       
@<TRIPOS>BOND
   1    1    2 1
   2    1   14 ar
   3    1   11 ar
   4    2    3 3
   5    3    4 1
   6    4    5 ar
   7    4    8 ar
   8    5    9 ar
   9    5   26 1
  10    6    7 ar
  11    6   13 1
  12    6    9 ar
  13    7    8 ar
  14    8   27 1
  15   10   12 ar
  16   10   14 ar
  17   10   28 1
  18   11   15 ar
  19   11   29 1
  20   12   15 ar
  21   12   25 1
  22   13   16 am
  23   13   20 1
  24   14   30 1
  25   15   31 1
  26   16   17 1
  27   16   24 2
  28   17   18 1
  29   18   19 1
  30   18   22 1
  31   18   23 1
  32   19   20 1
  33   19   21 1
  34   19   32 1
  35   20   33 1
  36   20   34 1
  37   21   35 1
  38   21   36 1
  39   21   37 1
  40   22   38 1
  41   22   39 1
  42   22   40 1
  43   23   41 1
  44   23   42 1
  45   23   43 1

#	End of record

