#	Name: ASD01903046
#	Creating user name:	WinNT
#	Creation time:	15. 06. 2019 19:54

#	Modifying user name:	WinNT
#	Modification time:	15. 06. 2019 19:54

#	Program:	/corina/corina34_cracker 3.40 0067  02.08.2006

@<TRIPOS>MOLECULE
ASD01903046
  34   36    0    0    0
SMALL
NO_CHARGES


@<TRIPOS>ATOM
   1 C1            -0.0152     1.3097    -0.0027 C.2     
   2 N2             0.0035    -0.0044    -0.0344 N.2     
   3 C3            -1.1661    -0.6161    -0.0329 C.2     
   4 N4            -2.2398     0.1322    -0.0001 N.2     
   5 S5            -1.6833     1.7373     0.0372 S.3     
   6 C6            -1.2605    -2.0968    -0.0675 C.2     
   7 N7             1.0722     2.1658     0.0035 N.pl3   
   8 C8            -2.4508    -2.8567    -0.0693 C.2     
   9 N9            -2.1304    -4.1209    -0.1050 N.2     
  10 N10           -0.7344    -4.2275    -0.1275 N.am    
  11 C11           -0.2150    -2.9686    -0.1094 C.2     
  12 C12           -3.8517    -2.3022    -0.0357 C.3     
  13 C13            0.8754     3.5463    -0.0928 C.ar    
  14 C14            1.7207     4.4186     0.5811 C.ar    
  15 C15            1.5238     5.7820     0.4835 C.ar    
  16 C16            0.4861     6.2791    -0.2836 C.ar    
  17 C17           -0.3573     5.4135    -0.9558 C.ar    
  18 C18           -0.1625     4.0492    -0.8671 C.ar    
  19 C19           -0.0284    -5.3749    -0.1658 C.2     
  20 O20            1.1793    -5.3409    -0.1817 O.2     
  21 C21           -0.7452    -6.7003    -0.1888 C.3     
  22 H22            1.9709     1.8078     0.0745 H       
  23 H23            0.8334    -2.7095    -0.1194 H       
  24 H24           -4.2041    -2.1432    -1.0548 H       
  25 H25           -4.5099    -3.0084     0.4703 H       
  26 H26           -3.8543    -1.3539     0.5017 H       
  27 H27            2.5308     4.0310     1.1810 H       
  28 H28            2.1806     6.4607     1.0072 H       
  29 H29            0.3338     7.3458    -0.3577 H       
  30 H30           -1.1669     5.8050    -1.5538 H       
  31 H31           -0.8215     3.3737    -1.3923 H       
  32 H32           -1.8219    -6.5315    -0.1696 H       
  33 H33           -0.4785    -7.2420    -1.0963 H       
  34 H34           -0.4538    -7.2862     0.6830 H       
@<TRIPOS>BOND
   1    1    2 2
   2    1    7 1
   3    1    5 1
   4    2    3 1
   5    3    4 2
   6    3    6 1
   7    4    5 1
   8    6    8 1
   9    6   11 2
  10    7   13 1
  11    7   22 1
  12    8    9 2
  13    8   12 1
  14    9   10 1
  15   10   11 1
  16   10   19 am
  17   11   23 1
  18   12   24 1
  19   12   25 1
  20   12   26 1
  21   13   14 ar
  22   13   18 ar
  23   14   15 ar
  24   14   27 1
  25   15   16 ar
  26   15   28 1
  27   16   17 ar
  28   16   29 1
  29   17   18 ar
  30   17   30 1
  31   18   31 1
  32   19   20 2
  33   19   21 1
  34   21   32 1
  35   21   33 1
  36   21   34 1

#	End of record

