#	Name: ASD03091768
#	Creating user name:	WinNT
#	Creation time:	15. 06. 2019 20:31

#	Modifying user name:	WinNT
#	Modification time:	15. 06. 2019 20:31

#	Program:	/corina/corina34_cracker 3.40 0067  02.08.2006

@<TRIPOS>MOLECULE
ASD03091768
  34   36    0    0    0
SMALL
NO_CHARGES


@<TRIPOS>ATOM
   1 C1            -0.0128     1.4555    -0.0340 C.3     
   2 C2             0.0654    -0.0710    -0.1045 C.3     
   3 N3             0.7651    -0.5820     1.0811 N.3     
   4 C4             0.0399    -0.2426     2.3121 C.3     
   5 C5            -0.0397     1.2786     2.4566 C.3     
   6 C6             1.3781     1.8557     2.5292 C.3     
   7 N7             2.0567     1.6030     1.2508 N.am    
   8 C8             1.4055     2.0344     0.0064 C.3     
   9 C9             3.2546     0.9861     1.2201 C.2     
  10 O10            3.7537     0.6791     0.1536 O.2     
  11 C11            3.9569     0.6848     2.4726 C.2     
  12 C12            5.0944    -0.0542     2.6102 C.2     
  13 C13           -0.7591     1.8664     1.2389 C.3     
  14 O14            3.6043     1.0914     3.7144 O.3     
  15 C15            4.5050     0.6028     4.5727 C.2     
  16 N16            5.3983    -0.0838     3.9118 N.2     
  17 C17            5.8672    -0.7166     1.4989 C.3     
  18 H18           -0.5375     1.8352    -0.9107 H       
  19 H19           -0.9423    -0.4851    -0.1381 H       
  20 H20            0.6090    -0.3657    -1.0021 H       
  21 H21            0.9141    -1.5775     1.0120 H       
  22 H22           -0.9676    -0.6561     2.2657 H       
  23 H23            0.5651    -0.6619     3.1703 H       
  24 H24           -0.5838     1.5310     3.3667 H       
  25 H25            1.3268     2.9294     2.7098 H       
  26 H26            1.9283     1.3729     3.3368 H       
  27 H27            1.9738     1.6693    -0.8490 H       
  28 H28            1.3568     3.1230    -0.0221 H       
  29 H29           -0.7764     2.9536     1.3159 H       
  30 H30           -1.7802     1.4869     1.2009 H       
  31 H31            4.4971     0.7541     5.6420 H       
  32 H32            6.6196    -0.0261     1.1178 H       
  33 H33            6.3566    -1.6127     1.8806 H       
  34 H34            5.1845    -0.9902     0.6945 H       
@<TRIPOS>BOND
   1    1    2 1
   2    1    8 1
   3    1   13 1
   4    1   18 1
   5    2    3 1
   6    2   19 1
   7    2   20 1
   8    3    4 1
   9    3   21 1
  10    4    5 1
  11    4   22 1
  12    4   23 1
  13    5    6 1
  14    5   13 1
  15    5   24 1
  16    6    7 1
  17    6   25 1
  18    6   26 1
  19    7    8 1
  20    7    9 am
  21    8   27 1
  22    8   28 1
  23    9   10 2
  24    9   11 1
  25   11   12 2
  26   11   14 1
  27   12   17 1
  28   12   16 1
  29   13   29 1
  30   13   30 1
  31   14   15 1
  32   15   16 2
  33   15   31 1
  34   17   32 1
  35   17   33 1
  36   17   34 1

#	End of record

