#	Name: ASD01812777
#	Creating user name:	WinNT
#	Creation time:	15. 06. 2019 19:29

#	Modifying user name:	WinNT
#	Modification time:	15. 06. 2019 19:29

#	Program:	/corina/corina34_cracker 3.40 0067  02.08.2006

@<TRIPOS>MOLECULE
ASD01812777
  46   49    0    0    0
SMALL
NO_CHARGES


@<TRIPOS>ATOM
   1 C1            -0.0167     1.3764     0.0227 C.ar    
   2 C2             0.0019    -0.0040     0.0170 C.ar    
   3 C3             1.2084    -0.6873    -0.0072 C.ar    
   4 C4             2.3936     0.0073    -0.0260 C.ar    
   5 C5             2.3937     1.4056    -0.0210 C.ar    
   6 C6             1.1718     2.0915     0.0039 C.ar    
   7 C7             3.8406    -0.4179    -0.0540 C.3     
   8 N8             4.6307     0.8186    -0.0641 N.am    
   9 C9             3.7911     1.8681    -0.0449 C.2     
  10 C10            6.0934     0.8964    -0.0901 C.3     
  11 C11            6.5693     0.9279    -1.5196 C.ar    
  12 C12            6.5280     2.1115    -2.2368 C.ar    
  13 C13            6.9657     2.1402    -3.5499 C.ar    
  14 C14            7.4442     0.9855    -4.1441 C.ar    
  15 C15            7.4846    -0.1973    -3.4248 C.ar    
  16 C16            7.0524    -0.2236    -2.1125 C.ar    
  17 O17            1.1515     3.4479     0.0091 O.3     
  18 O18            4.1366     3.0339    -0.0467 O.2     
  19 F19            7.8713     1.0120    -5.4256 F       
  20 C20           -0.1276     4.0779    -0.0868 C.3     
  21 F21            6.0602     3.2378    -1.6556 F       
  22 C22            0.0363     5.4818    -0.6771 C.3     
  23 C23           -1.3291     6.1756    -0.7025 C.3     
  24 C24           -1.9043     6.2052     0.7159 C.3     
  25 O25           -2.0017     4.8705     1.2170 O.3     
  26 C26           -0.7492     4.1885     1.3079 C.3     
  27 O27            0.5478     5.3841    -2.0078 O.3     
  28 H28           -0.9603     1.9016     0.0374 H       
  29 H29           -0.9274    -0.5542     0.0317 H       
  30 H30            1.2164    -1.7672    -0.0109 H       
  31 H31            4.0757    -1.0056     0.8333 H       
  32 H32            4.0430    -0.9992    -0.9536 H       
  33 H33            6.4182     1.8027     0.4210 H       
  34 H34            6.5126     0.0252     0.4133 H       
  35 H35            6.9335     3.0629    -4.1102 H       
  36 H36            7.8580    -1.0985    -3.8883 H       
  37 H37            7.0881    -1.1455    -1.5510 H       
  38 H38           -0.7780     3.4857    -0.7305 H       
  39 H39            0.7279     6.0576    -0.0620 H       
  40 H40           -1.2128     7.1952    -1.0698 H       
  41 H41           -2.0047     5.6261    -1.3582 H       
  42 H42           -1.2486     6.7891     1.3619 H       
  43 H43           -2.8949     6.6596     0.6970 H       
  44 H44           -0.9076     3.1901     1.7155 H       
  45 H45           -0.0784     4.7460     1.9617 H       
  46 H46            0.6766     6.2379    -2.4433 H       
@<TRIPOS>BOND
   1    1    2 ar
   2    1    6 ar
   3    1   28 1
   4    2    3 ar
   5    2   29 1
   6    3    4 ar
   7    3   30 1
   8    4    7 1
   9    4    5 ar
  10    5    6 ar
  11    5    9 1
  12    6   17 1
  13    7    8 1
  14    7   31 1
  15    7   32 1
  16    8    9 am
  17    8   10 1
  18    9   18 2
  19   10   11 1
  20   10   33 1
  21   10   34 1
  22   11   12 ar
  23   11   16 ar
  24   12   13 ar
  25   12   21 1
  26   13   14 ar
  27   13   35 1
  28   14   15 ar
  29   14   19 1
  30   15   16 ar
  31   15   36 1
  32   16   37 1
  33   17   20 1
  34   20   22 1
  35   20   26 1
  36   20   38 1
  37   22   27 1
  38   22   23 1
  39   22   39 1
  40   23   24 1
  41   23   40 1
  42   23   41 1
  43   24   25 1
  44   24   42 1
  45   24   43 1
  46   25   26 1
  47   26   44 1
  48   26   45 1
  49   27   46 1

#	End of record

