#	Name: ASD09116494
#	Creating user name:	WinNT
#	Creation time:	15. 06. 2019 21:21

#	Modifying user name:	WinNT
#	Modification time:	15. 06. 2019 21:21

#	Program:	/corina/corina34_cracker 3.40 0067  02.08.2006

@<TRIPOS>MOLECULE
ASD09116494
  72   78    0    0    0
SMALL
NO_CHARGES


@<TRIPOS>ATOM
   1 N1            -0.5602     3.8752     0.5650 N.2     
   2 N2            -1.1030     5.0318     1.1476 N.pl3   
   3 C3             0.7391     4.0464     0.5133 C.2     
   4 N4             1.0422     5.2431     1.0297 N.2     
   5 C5            -0.0590     5.8503     1.4171 C.2     
   6 N6            -0.1361     7.1024     1.9968 N.pl3   
   7 C7            -2.4524     5.2874     1.3985 C.ar    
   8 N8             1.6572     3.1285     0.0026 N.pl3   
   9 C9             3.0071     3.4744    -0.1009 C.ar    
  10 C10            3.9861     2.4931    -0.0059 C.ar    
  11 C11            3.3723     4.7997    -0.3048 C.ar    
  12 C12            4.7109     5.1307    -0.4056 C.ar    
  13 C13            5.6749     4.1607    -0.3064 C.ar    
  14 C14            5.3202     2.8368    -0.1088 C.ar    
  15 N15           -2.7992     6.1353     2.3553 N.ar    
  16 N16           -4.0266     6.3979     2.6332 N.ar    
  17 C17           -5.0238     5.8301     1.9741 C.ar    
  18 C18           -4.7533     4.9376     0.9330 C.ar    
  19 C19           -3.4370     4.6531     0.6367 C.ar    
  20 C20           -6.4387     6.0894     2.3279 C.ar    
  21 C21           -7.2995     5.0049     2.5043 C.ar    
  22 C22           -6.7582     3.6065     2.3865 C.3     
  23 C23           -6.5513     3.2106     0.9271 C.3     
  24 C24           -5.8864     4.3428     0.1486 C.3     
  25 C25           -6.9143     7.3871     2.4802 C.ar    
  26 C26           -8.2448     7.5959     2.7879 C.ar    
  27 C27           -9.0992     6.5192     2.9414 C.ar    
  28 C28           -8.6278     5.2256     2.7989 C.ar    
  29 C29            5.1063     6.5763    -0.6258 C.3     
  30 C30            5.6416     6.7205    -2.0525 C.3     
  31 C31            7.1173     6.3792    -2.1146 C.3     
  32 C32            7.4334     4.9172    -1.8687 C.3     
  33 C33            7.1397     4.5304    -0.4175 C.3     
  34 N34            7.6256     6.7489    -3.4424 N.3     
  35 C35            9.0843     6.5505    -3.5238 C.3     
  36 C36            6.9809     5.9418    -4.5001 C.3     
  37 C37            8.0777     5.7531    -5.5776 C.3     
  38 C38            9.3503     5.5933    -4.7047 C.3     
  39 F39            7.8424     4.6013    -6.3360 F       
  40 H40            0.6722     7.6160     2.1510 H       
  41 H41           -0.9984     7.4676     2.2495 H       
  42 H42            1.3585     2.2502    -0.2806 H       
  43 H43            3.7043     1.4621     0.1488 H       
  44 H44            2.6154     5.5661    -0.3843 H       
  45 H45            6.0835     2.0766    -0.0318 H       
  46 H46           -3.1770     3.9596    -0.1494 H       
  47 H47           -5.8042     3.5481     2.9106 H       
  48 H48           -7.4604     2.9123     2.8482 H       
  49 H49           -5.9185     2.3243     0.8820 H       
  50 H50           -7.5175     2.9842     0.4762 H       
  51 H51           -6.6248     5.1175    -0.0580 H       
  52 H52           -5.5037     3.9528    -0.7945 H       
  53 H53           -6.2469     8.2274     2.3591 H       
  54 H54           -8.6185     8.6020     2.9091 H       
  55 H55          -10.1403     6.6888     3.1734 H       
  56 H56           -9.3006     4.3893     2.9192 H       
  57 H57            4.2353     7.2183    -0.4947 H       
  58 H58            5.8822     6.8564     0.0866 H       
  59 H59            5.0907     6.0493    -2.7113 H       
  60 H60            5.4971     7.7478    -2.3871 H       
  61 H61            7.6419     6.9766    -1.3690 H       
  62 H62            6.8258     4.3027    -2.5331 H       
  63 H63            8.4875     4.7381    -2.0808 H       
  64 H64            7.3549     5.3747     0.2374 H       
  65 H65            7.7555     3.6768    -0.1341 H       
  66 H66            9.5791     7.5053    -3.7017 H       
  67 H67            9.4505     6.1075    -2.5976 H       
  68 H68            6.6687     4.9759    -4.1031 H       
  69 H69            6.1270     6.4755    -4.9173 H       
  70 H70            8.1514     6.6321    -6.2179 H       
  71 H71           10.2380     5.9007    -5.2575 H       
  72 H72            9.4502     4.5663    -4.3533 H       
@<TRIPOS>BOND
   1    1    2 1
   2    1    3 2
   3    2    7 1
   4    2    5 1
   5    3    4 1
   6    3    8 1
   7    4    5 2
   8    5    6 1
   9    6   40 1
  10    6   41 1
  11    7   15 ar
  12    7   19 ar
  13    8    9 1
  14    8   42 1
  15    9   10 ar
  16    9   11 ar
  17   10   14 ar
  18   10   43 1
  19   11   12 ar
  20   11   44 1
  21   12   13 ar
  22   12   29 1
  23   13   14 ar
  24   13   33 1
  25   14   45 1
  26   15   16 ar
  27   16   17 ar
  28   17   18 ar
  29   17   20 1
  30   18   19 ar
  31   18   24 1
  32   19   46 1
  33   20   21 ar
  34   20   25 ar
  35   21   22 1
  36   21   28 ar
  37   22   23 1
  38   22   47 1
  39   22   48 1
  40   23   24 1
  41   23   49 1
  42   23   50 1
  43   24   51 1
  44   24   52 1
  45   25   26 ar
  46   25   53 1
  47   26   27 ar
  48   26   54 1
  49   27   28 ar
  50   27   55 1
  51   28   56 1
  52   29   30 1
  53   29   57 1
  54   29   58 1
  55   30   31 1
  56   30   59 1
  57   30   60 1
  58   31   32 1
  59   31   34 1
  60   31   61 1
  61   32   33 1
  62   32   62 1
  63   32   63 1
  64   33   64 1
  65   33   65 1
  66   34   35 1
  67   34   36 1
  68   35   38 1
  69   35   66 1
  70   35   67 1
  71   36   37 1
  72   36   68 1
  73   36   69 1
  74   37   38 1
  75   37   39 1
  76   37   70 1
  77   38   71 1
  78   38   72 1

#	End of record

