#	Name: ASD00960152
#	Creating user name:	WinNT
#	Creation time:	15. 06. 2019 18:53

#	Modifying user name:	WinNT
#	Modification time:	15. 06. 2019 18:53

#	Program:	/corina/corina34_cracker 3.40 0067  02.08.2006

@<TRIPOS>MOLECULE
ASD00960152
  40   42    0    0    0
SMALL
NO_CHARGES


@<TRIPOS>ATOM
   1 C1            -0.0508     1.2816    -0.0687 C.3     
   2 C2            -0.7286     1.9506     1.1476 C.3     
   3 O3            -2.0676     2.2571     0.7016 O.3     
   4 C4            -1.9175     2.7330    -0.6537 C.3     
   5 C5            -3.2412     2.6098    -1.4111 C.3     
   6 C6            -0.7696     0.9982     2.3148 C.2     
   7 C7             0.2303     0.8124     3.2049 C.2     
   8 N8            -1.8181     0.1999     2.6370 N.pl3   
   9 C9            -1.4958    -0.5263     3.7558 C.2     
  10 C10           -0.1999    -0.1578     4.1386 C.2     
  11 N11           -3.0826     0.0072     2.0610 N.2     
  12 C12           -3.9192    -0.8458     2.5895 C.2     
  13 N13           -3.6175    -1.5547     3.6731 N.2     
  14 C14           -2.4456    -1.4315     4.2746 C.2     
  15 N15           -2.1559    -2.1794     5.3994 N.pl3   
  16 C16           -0.8479     1.8079    -1.2832 C.3     
  17 O17            0.0015     2.5494    -2.1610 O.3     
  18 C18           -0.1617    -0.2414     0.0262 C.3     
  19 O19           -4.2003     3.5036    -0.8425 O.3     
  20 O20            1.3192     1.6779    -0.1591 O.3     
  21 C21            0.5593    -0.6752     5.2806 C.2     
  22 S22            1.6168    -2.0055     5.0734 S.2     
  23 N23            0.4249    -0.1038     6.4938 N.am    
  24 H24           -0.2011     2.8645     1.4209 H       
  25 H25           -1.5724     3.7669    -0.6568 H       
  26 H26           -3.0849     2.8637    -2.4596 H       
  27 H27           -3.6089     1.5865    -1.3360 H       
  28 H28            1.1864     1.3147     3.2029 H       
  29 H29           -4.8879    -0.9794     2.1312 H       
  30 H30           -2.8432    -2.7299     5.8061 H       
  31 H31           -1.2651    -2.1539     5.7826 H       
  32 H32           -1.3218     0.9829    -1.8152 H       
  33 H33           -0.4613     2.9534    -2.9078 H       
  34 H34            0.3567    -0.5885     0.9200 H       
  35 H35           -1.2123    -0.5264     0.0819 H       
  36 H36            0.2914    -0.6944    -0.8556 H       
  37 H37           -5.0653     3.4788    -1.2741 H       
  38 H38            1.7855     1.3100    -0.9222 H       
  39 H39           -0.1742     0.6500     6.6112 H       
  40 H40            0.9274    -0.4462     7.2496 H       
@<TRIPOS>BOND
   1    1   18 1
   2    1   20 1
   3    1    2 1
   4    1   16 1
   5    2    3 1
   6    2    6 1
   7    2   24 1
   8    3    4 1
   9    4   16 1
  10    4    5 1
  11    4   25 1
  12    5   19 1
  13    5   26 1
  14    5   27 1
  15    6    7 2
  16    6    8 1
  17    7   10 1
  18    7   28 1
  19    8    9 1
  20    8   11 1
  21    9   10 2
  22    9   14 1
  23   10   21 1
  24   11   12 2
  25   12   13 1
  26   12   29 1
  27   13   14 2
  28   14   15 1
  29   15   30 1
  30   15   31 1
  31   16   17 1
  32   16   32 1
  33   17   33 1
  34   18   34 1
  35   18   35 1
  36   18   36 1
  37   19   37 1
  38   20   38 1
  39   21   22 2
  40   21   23 am
  41   23   39 1
  42   23   40 1

#	End of record

