#	Name: ASD03331294
#	Creating user name:	WinNT
#	Creation time:	15. 06. 2019 20:38

#	Modifying user name:	WinNT
#	Modification time:	15. 06. 2019 20:38

#	Program:	/corina/corina34_cracker 3.40 0067  02.08.2006

@<TRIPOS>MOLECULE
ASD03331294
  49   51    0    0    0
SMALL
NO_CHARGES


@<TRIPOS>ATOM
   1 N1            -0.0459     1.4956     0.5698 N.am    
   2 C2             0.0019     0.1506     1.1630 C.3     
   3 C3             0.5966    -0.8151     0.1325 C.3     
   4 N4             1.8894    -0.2949    -0.3323 N.3     
   5 C5             1.7288     0.9912    -1.0237 C.3     
   6 C6             1.1805     2.0309    -0.0406 C.3     
   7 C7            -1.1849     2.2161     0.5802 C.2     
   8 O8            -2.2139     1.7206     0.9972 O.2     
   9 N9            -1.1831     3.4859     0.1284 N.am    
  10 C10           -2.3861     4.1969     0.0329 C.ar    
  11 C11           -2.4019     5.5684     0.2480 C.ar    
  12 C12            2.5724    -1.2723    -1.1904 C.3     
  13 C13            3.7831    -0.6115    -1.8525 C.3     
  14 C14            4.4944    -1.6294    -2.7462 C.3     
  15 C15           -3.5634     3.5320    -0.2827 C.ar    
  16 C16           -4.7485     4.2350    -0.3769 C.ar    
  17 C17           -4.7631     5.6020    -0.1568 C.ar    
  18 C18           -3.5891     6.2678     0.1529 C.ar    
  19 C19            6.9198    -1.0115    -2.7740 C.ar    
  20 C20            5.6870    -0.9785    -3.3983 C.ar    
  21 F21           -5.9233     6.2879    -0.2493 F       
  22 C22            8.0137    -0.4145    -3.3722 C.ar    
  23 C23            7.8747     0.2155    -4.5948 C.ar    
  24 C24            6.6419     0.2481    -5.2194 C.ar    
  25 C25            5.5481    -0.3490    -4.6211 C.ar    
  26 H26            0.6284     0.1658     2.0548 H       
  27 H27           -1.0063    -0.1698     1.4258 H       
  28 H28            0.7419    -1.7929     0.5918 H       
  29 H29           -0.0837    -0.9079    -0.7140 H       
  30 H30            2.6952     1.3234    -1.4030 H       
  31 H31            1.0327     0.8732    -1.8542 H       
  32 H32            0.9515     2.9537    -0.5736 H       
  33 H33            1.9203     2.2269     0.7355 H       
  34 H34           -0.3488     3.9073    -0.1307 H       
  35 H35           -1.4865     6.0880     0.4900 H       
  36 H36            2.9044    -2.1167    -0.5863 H       
  37 H37            1.8846    -1.6238    -1.9594 H       
  38 H38            3.4511     0.2329    -2.4565 H       
  39 H39            4.4709    -0.2599    -1.0835 H       
  40 H40            4.8265    -2.4738    -2.1422 H       
  41 H41            3.8066    -1.9810    -3.5152 H       
  42 H42           -3.5524     2.4658    -0.4548 H       
  43 H43           -5.6644     3.7182    -0.6227 H       
  44 H44           -3.6025     7.3340     0.3242 H       
  45 H45            7.0275    -1.4998    -1.8167 H       
  46 H46            8.9769    -0.4399    -2.8843 H       
  47 H47            8.7292     0.6825    -5.0619 H       
  48 H48            6.5334     0.7403    -6.1745 H       
  49 H49            4.5848    -0.3232    -5.1089 H       
@<TRIPOS>BOND
   1    1    2 1
   2    1    6 1
   3    1    7 am
   4    2    3 1
   5    2   26 1
   6    2   27 1
   7    3    4 1
   8    3   28 1
   9    3   29 1
  10    4    5 1
  11    4   12 1
  12    5    6 1
  13    5   30 1
  14    5   31 1
  15    6   32 1
  16    6   33 1
  17    7    8 2
  18    7    9 am
  19    9   10 1
  20    9   34 1
  21   10   11 ar
  22   10   15 ar
  23   11   18 ar
  24   11   35 1
  25   12   13 1
  26   12   36 1
  27   12   37 1
  28   13   14 1
  29   13   38 1
  30   13   39 1
  31   14   20 1
  32   14   40 1
  33   14   41 1
  34   15   16 ar
  35   15   42 1
  36   16   17 ar
  37   16   43 1
  38   17   18 ar
  39   17   21 1
  40   18   44 1
  41   19   20 ar
  42   19   22 ar
  43   19   45 1
  44   20   25 ar
  45   22   23 ar
  46   22   46 1
  47   23   24 ar
  48   23   47 1
  49   24   25 ar
  50   24   48 1
  51   25   49 1

#	End of record

