#	Name: ASD01470059
#	Creating user name:	WinNT
#	Creation time:	15. 06. 2019 19:21

#	Modifying user name:	WinNT
#	Modification time:	15. 06. 2019 19:21

#	Program:	/corina/corina34_cracker 3.40 0067  02.08.2006

@<TRIPOS>MOLECULE
ASD01470059
 218  222    0    0    0
SMALL
NO_CHARGES


@<TRIPOS>ATOM
   1 N1             5.2876    -1.7400    -1.6142 N.3     
   2 C2             4.3232    -2.7676    -1.1995 C.3     
   3 C3             4.2496    -2.8094     0.3051 C.2     
   4 O4             5.1533    -2.3481     0.9695 O.2     
   5 C5             4.7733    -4.1317    -1.7262 C.3     
   6 C6             4.8481    -4.0893    -3.2537 C.3     
   7 C7             3.7689    -5.2020    -1.2942 C.3     
   8 C8             5.4166    -5.4113    -3.7735 C.3     
   9 N9             3.1795    -3.3594     0.9125 N.am    
  10 C10            3.1661    -3.5206     2.3685 C.3     
  11 C11            2.4911    -4.8202     2.7239 C.2     
  12 O12            2.0742    -5.5467     1.8467 O.2     
  13 C13            2.4005    -2.3580     3.0033 C.3     
  14 C14            1.0134    -2.2525     2.3663 C.3     
  15 C15            3.1683    -1.0549     2.7721 C.3     
  16 C16            0.1745    -3.4677     2.7668 C.3     
  17 N17            2.3507    -5.1753     4.0164 N.am    
  18 C18            1.7945    -6.4864     4.3597 C.3     
  19 C19            1.7443    -6.6340     5.8586 C.2     
  20 O20            2.1346    -5.7327     6.5701 O.2     
  21 N21            1.2656    -7.7675     6.4084 N.am    
  22 C22            1.2168    -7.9110     7.8656 C.3     
  23 C23            0.6446    -9.2598     8.2187 C.2     
  24 O24            0.3106   -10.0257     7.3397 O.2     
  25 N25            0.5042    -9.6148     9.5112 N.am    
  26 C26           -0.0520   -10.9259     9.8544 C.3     
  27 C27            0.9518   -11.6986    10.6721 C.2     
  28 O28            0.5737   -12.5633    11.4338 O.2     
  29 C29           -1.3368   -10.7383    10.6625 C.3     
  30 S30           -2.7579   -10.6862     9.5380 S.3     
  31 N31            2.2662   -11.4321    10.5591 N.am    
  32 C32            3.3459   -12.0981    11.2913 C.3     
  33 C33            2.9090   -12.4820    12.6654 C.2     
  34 O34            1.7236   -12.5895    12.8982 O.2     
  35 C35            4.5414   -11.1268    11.3291 C.3     
  36 C36            4.3149   -10.2028    10.1170 C.3     
  37 C37            2.8570   -10.4105     9.6782 C.3     
  38 N38            3.7997   -12.7144    13.6611 N.am    
  39 C39            3.3611   -13.6181    14.7358 C.3     
  40 C40            3.1920   -12.8715    16.0333 C.2     
  41 O41            3.4802   -11.6977    16.1345 O.2     
  42 C42            2.0256   -14.2537    14.3441 C.3     
  43 C43            1.7492   -15.4339    15.2396 C.ar    
  44 C44            2.5945   -16.5278    15.2203 C.ar    
  45 C45            0.6538   -15.4184    16.0832 C.ar    
  46 C46            2.3436   -17.6107    16.0406 C.ar    
  47 C47            0.3985   -16.4988    16.9054 C.ar    
  48 C48            1.2422   -17.5999    16.8841 C.ar    
  49 O49            0.9932   -18.6639    17.6920 O.3     
  50 N50            2.6960   -13.5842    17.0931 N.am    
  51 C51            2.5326   -12.8536    18.3681 C.3     
  52 C52            1.6882   -13.7044    19.2855 C.2     
  53 O53            1.3203   -14.8032    18.9275 O.2     
  54 C54            3.9025   -12.6091    19.0039 C.3     
  55 C55            4.7087   -11.6903    18.1225 C.2     
  56 C56            5.5985   -12.0585    17.1873 C.2     
  57 C57            4.6652   -10.2261    18.1193 C.ar    
  58 C58            5.5824    -9.8121    17.1364 C.ar    
  59 C59            3.9463    -9.2750    18.8461 C.ar    
  60 N60            6.1322   -10.9496    16.5890 N.pl3   
  61 C61            5.7614    -8.4527    16.9006 C.ar    
  62 C62            4.1377    -7.9451    18.5982 C.ar    
  63 C63            5.0417    -7.5314    17.6292 C.ar    
  64 N64            1.3415   -13.2370    20.5137 N.am    
  65 C65            0.4884   -14.1160    21.3393 C.3     
  66 C66           -0.6729   -13.3098    21.8655 C.2     
  67 O67           -0.5308   -12.1407    22.1553 O.2     
  68 C68            1.3028   -14.6677    22.5113 C.3     
  69 C69            2.4163   -15.5714    21.9780 C.3     
  70 S70            3.3818   -16.2254    23.3674 S.3     
  71 C71            4.6307   -17.2545    22.5478 C.3     
  72 N72           -1.8866   -13.9178    22.0098 N.am    
  73 C73           -2.9712   -13.0591    22.5329 C.3     
  74 C74           -4.2609   -13.4422    21.8506 C.2     
  75 O75           -4.4557   -14.5858    21.4969 O.2     
  76 C76           -2.6512   -11.5919    22.2397 C.3     
  77 C77           -2.3634   -11.4246    20.7699 C.2     
  78 O78           -1.9526   -10.2373    20.2974 O.3     
  79 O79           -2.5023   -12.3592    20.0169 O.2     
  80 N80           -5.2028   -12.4817    21.6391 N.am    
  81 C81           -6.4484   -12.9149    20.9759 C.3     
  82 C82           -6.9821   -11.7685    20.1527 C.2     
  83 O83           -6.6705   -10.6251    20.4106 O.2     
  84 C84           -6.1564   -14.1088    20.0647 C.3     
  85 C85           -5.0117   -13.7558    19.1128 C.3     
  86 C86           -4.7972   -14.9044    18.1251 C.3     
  87 N87           -3.7012   -14.5664    17.2136 N.pl3   
  88 C88           -3.3248   -15.4530    16.2326 C.2     
  89 N89           -3.9769   -16.6568    16.1069 N.pl3   
  90 N90           -2.3497   -15.1523    15.4217 N.2     
  91 N91           -7.8226   -12.0427    19.1124 N.am    
  92 C92           -8.3048   -10.8721    18.3476 C.3     
  93 C93           -8.5038   -11.2828    16.9103 C.2     
  94 O94           -8.7510   -12.4362    16.6286 O.2     
  95 C95           -9.6337   -10.3890    18.9321 C.3     
  96 C96           -9.4081    -9.8756    20.3556 C.3     
  97 C97          -10.7171    -9.3999    20.9314 C.2     
  98 O98          -10.7612    -8.9040    22.1779 O.3     
  99 O99          -11.7267    -9.4648    20.2709 O.2     
 100 N100          -8.4023   -10.3399    15.9340 N.am    
 101 C101          -8.6062   -10.7978    14.5462 C.3     
 102 C102          -7.7136    -9.9984    13.6323 C.2     
 103 O103          -7.2700    -8.9263    13.9855 O.2     
 104 C104         -10.0682   -10.5879    14.1469 C.3     
 105 C105         -10.9646   -11.4843    15.0035 C.3     
 106 C106         -12.4046   -11.2775    14.6102 C.2     
 107 O107         -13.3756   -11.9642    15.2326 O.3     
 108 O108         -12.6851   -10.4936    13.7346 O.2     
 109 N109          -7.4132   -10.5025    12.4007 N.am    
 110 C110          -6.5300    -9.6635    11.5616 C.3     
 111 C111          -7.2593    -9.2598    10.3062 C.2     
 112 O112          -8.3947    -9.6280    10.1227 O.2     
 113 C113          -5.2872   -10.4756    11.1944 C.3     
 114 S114          -4.0399    -9.3808    10.4672 S.3     
 115 H115           6.2074    -1.9397    -1.2507 H       
 116 H116           5.3079    -1.6477    -2.6188 H       
 117 H117           3.3401    -2.5280    -1.6048 H       
 118 H118           5.7564    -4.3713    -1.3208 H       
 119 H119           3.8489    -3.9379    -3.6623 H       
 120 H120           5.4954    -3.2687    -3.5632 H       
 121 H121           4.0896    -6.1738    -1.6694 H       
 122 H122           3.7157    -5.2322    -0.2059 H       
 123 H123           2.7859    -4.9624    -1.6995 H       
 124 H124           5.4698    -5.3810    -4.8617 H       
 125 H125           6.4157    -5.5627    -3.3649 H       
 126 H126           4.7693    -6.2318    -3.4640 H       
 127 H127           2.4182    -3.6485     0.3855 H       
 128 H128           4.1899    -3.5287     2.7426 H       
 129 H129           2.2962    -2.5332     4.0741 H       
 130 H130           0.5230    -1.3425     2.7122 H       
 131 H131           1.1132    -2.2215     1.2813 H       
 132 H132           3.2675    -0.8767     1.7014 H       
 133 H133           2.6257    -0.2275     3.2294 H       
 134 H134           4.1586    -1.1322     3.2209 H       
 135 H135           0.2249    -3.6039     3.8471 H       
 136 H136          -0.8617    -3.3081     2.4687 H       
 137 H137           0.5627    -4.3569     2.2700 H       
 138 H138           2.6179    -4.5627     4.7194 H       
 139 H139           0.7871    -6.5717     3.9522 H       
 140 H140           2.4244    -7.2699     3.9383 H       
 141 H141           0.9534    -8.4884     5.8394 H       
 142 H142           2.2241    -7.8257     8.2730 H       
 143 H143           0.5869    -7.1276     8.2869 H       
 144 H144           0.7714    -9.0022    10.2142 H       
 145 H145          -0.2757   -11.4758     8.9403 H       
 146 H146          -1.4536   -11.5702    11.3571 H       
 147 H147          -1.2813    -9.8040    11.2211 H       
 148 H148           3.6465   -12.9967    10.7359 H       
 149 H149           4.5363   -10.5508    12.2545 H       
 150 H150           5.4795   -11.6717    11.2236 H       
 151 H151           4.4750    -9.1634    10.4037 H       
 152 H152           4.9919   -10.4749     9.3072 H       
 153 H153           2.8276   -10.7526     8.6437 H       
 154 H154           2.3052    -9.4755     9.7745 H       
 155 H155           4.6798   -12.3065    13.6644 H       
 156 H156           4.1055   -14.4030    14.8697 H       
 157 H157           1.2276   -13.5194    14.4540 H       
 158 H158           2.0722   -14.5873    13.3074 H       
 159 H159           3.4516   -16.5359    14.5632 H       
 160 H160          -0.0025   -14.5609    16.0997 H       
 161 H161           3.0040   -18.4651    16.0249 H       
 162 H162          -0.4570   -16.4861    17.5645 H       
 163 H163           1.4117   -18.6040    18.5616 H       
 164 H164           2.4638   -14.5224    17.0111 H       
 165 H165           2.0354   -11.9008    18.1860 H       
 166 H166           3.7716   -12.1501    19.9838 H       
 167 H167           4.4264   -13.5586    19.1145 H       
 168 H168           5.8555   -13.0787    16.9435 H       
 169 H169           3.2411    -9.5895    19.6012 H       
 170 H170           6.7971   -10.9630    15.8829 H       
 171 H171           6.4626    -8.1208    16.1492 H       
 172 H172           3.5814    -7.2098    19.1606 H       
 173 H173           5.1822    -6.4766    17.4447 H       
 174 H174           1.6393   -12.3704    20.8320 H       
 175 H175           0.1176   -14.9413    20.7315 H       
 176 H176           1.7419   -13.8409    23.0696 H       
 177 H177           0.6506   -15.2436    23.1678 H       
 178 H178           1.9771   -16.3981    21.4196 H       
 179 H179           3.0685   -14.9954    21.3215 H       
 180 H180           5.2789   -17.7063    23.2987 H       
 181 H181           4.1362   -18.0391    21.9752 H       
 182 H182           5.2276   -16.6365    21.8771 H       
 183 H183          -2.0283   -14.8505    21.7839 H       
 184 H184          -3.0683   -13.2070    23.6084 H       
 185 H185          -3.5041   -10.9719    22.5158 H       
 186 H186          -1.7786   -11.2878    22.8178 H       
 187 H187          -1.7804   -10.1785    19.3477 H       
 188 H188          -5.0626   -11.5610    21.9103 H       
 189 H189          -7.1831   -13.2006    21.7287 H       
 190 H190          -5.8721   -14.9682    20.6718 H       
 191 H191          -7.0480   -14.3513    19.4866 H       
 192 H192          -5.2619   -12.8473    18.5648 H       
 193 H193          -4.0989   -13.5944    19.6862 H       
 194 H194          -4.5470   -15.8128    18.6730 H       
 195 H195          -5.7100   -15.0657    17.5516 H       
 196 H196          -3.2411   -13.7171    17.3023 H       
 197 H197          -4.7026   -16.8806    16.7104 H       
 198 H198          -3.7114   -17.2824    15.4148 H       
 199 H199          -2.0841   -15.7779    14.7295 H       
 200 H200          -8.0868   -12.9488    18.8885 H       
 201 H201          -7.5669   -10.0715    18.4003 H       
 202 H202         -10.0312    -9.5839    18.3142 H       
 203 H203         -10.3437   -11.2159    18.9523 H       
 204 H204          -9.0107   -10.6808    20.9736 H       
 205 H205          -8.6982    -9.0488    20.3354 H       
 206 H206         -11.6234    -8.6115    22.5037 H       
 207 H207          -8.2060    -9.4127    16.1403 H       
 208 H208          -8.3554   -11.8559    14.4703 H       
 209 H209         -10.3414    -9.5444    14.3039 H       
 210 H210         -10.1978   -10.8431    13.0951 H       
 211 H211         -10.6913   -12.5277    14.8464 H       
 212 H212         -10.8349   -11.2291    16.0552 H       
 213 H213         -14.2840   -11.7977    14.9458 H       
 214 H214          -7.7565   -11.3566    12.0949 H       
 215 H215          -6.2343    -8.7739    12.1177 H       
 216 H216          -6.7667    -8.6413     9.5706 H       
 217 H217          -4.8819   -10.9449    12.0909 H       
 218 H218          -5.5570   -11.2458    10.4718 H       
@<TRIPOS>BOND
   1    1    2 1
   2    1  115 1
   3    1  116 1
   4    2    3 1
   5    2    5 1
   6    2  117 1
   7    3    9 am
   8    3    4 2
   9    5    7 1
  10    5    6 1
  11    5  118 1
  12    6    8 1
  13    6  119 1
  14    6  120 1
  15    7  121 1
  16    7  122 1
  17    7  123 1
  18    8  124 1
  19    8  125 1
  20    8  126 1
  21    9   10 1
  22    9  127 1
  23   10   13 1
  24   10   11 1
  25   10  128 1
  26   11   17 am
  27   11   12 2
  28   13   15 1
  29   13   14 1
  30   13  129 1
  31   14   16 1
  32   14  130 1
  33   14  131 1
  34   15  132 1
  35   15  133 1
  36   15  134 1
  37   16  135 1
  38   16  136 1
  39   16  137 1
  40   17   18 1
  41   17  138 1
  42   18   19 1
  43   18  139 1
  44   18  140 1
  45   19   21 am
  46   19   20 2
  47   21   22 1
  48   21  141 1
  49   22   23 1
  50   22  142 1
  51   22  143 1
  52   23   24 2
  53   23   25 am
  54   25   26 1
  55   25  144 1
  56   26   27 1
  57   26   29 1
  58   26  145 1
  59   27   28 2
  60   27   31 am
  61   29   30 1
  62   29  146 1
  63   29  147 1
  64   30  114 1
  65   31   37 1
  66   31   32 1
  67   32   35 1
  68   32   33 1
  69   32  148 1
  70   33   38 am
  71   33   34 2
  72   35   36 1
  73   35  149 1
  74   35  150 1
  75   36   37 1
  76   36  151 1
  77   36  152 1
  78   37  153 1
  79   37  154 1
  80   38   39 1
  81   38  155 1
  82   39   42 1
  83   39   40 1
  84   39  156 1
  85   40   50 am
  86   40   41 2
  87   42   43 1
  88   42  157 1
  89   42  158 1
  90   43   45 ar
  91   43   44 ar
  92   44   46 ar
  93   44  159 1
  94   45   47 ar
  95   45  160 1
  96   46   48 ar
  97   46  161 1
  98   47   48 ar
  99   47  162 1
 100   48   49 1
 101   49  163 1
 102   50   51 1
 103   50  164 1
 104   51   54 1
 105   51   52 1
 106   51  165 1
 107   52   64 am
 108   52   53 2
 109   54   55 1
 110   54  166 1
 111   54  167 1
 112   55   57 1
 113   55   56 2
 114   56   60 1
 115   56  168 1
 116   57   58 ar
 117   57   59 ar
 118   58   61 ar
 119   58   60 1
 120   59   62 ar
 121   59  169 1
 122   60  170 1
 123   61   63 ar
 124   61  171 1
 125   62   63 ar
 126   62  172 1
 127   63  173 1
 128   64   65 1
 129   64  174 1
 130   65   68 1
 131   65   66 1
 132   65  175 1
 133   66   67 2
 134   66   72 am
 135   68   69 1
 136   68  176 1
 137   68  177 1
 138   69   70 1
 139   69  178 1
 140   69  179 1
 141   70   71 1
 142   71  180 1
 143   71  181 1
 144   71  182 1
 145   72   73 1
 146   72  183 1
 147   73   74 1
 148   73   76 1
 149   73  184 1
 150   74   75 2
 151   74   80 am
 152   76   77 1
 153   76  185 1
 154   76  186 1
 155   77   78 1
 156   77   79 2
 157   78  187 1
 158   80   81 1
 159   80  188 1
 160   81   84 1
 161   81   82 1
 162   81  189 1
 163   82   83 2
 164   82   91 am
 165   84   85 1
 166   84  190 1
 167   84  191 1
 168   85   86 1
 169   85  192 1
 170   85  193 1
 171   86   87 1
 172   86  194 1
 173   86  195 1
 174   87   88 1
 175   87  196 1
 176   88   90 2
 177   88   89 1
 178   89  197 1
 179   89  198 1
 180   90  199 1
 181   91   92 1
 182   91  200 1
 183   92   93 1
 184   92   95 1
 185   92  201 1
 186   93  100 am
 187   93   94 2
 188   95   96 1
 189   95  202 1
 190   95  203 1
 191   96   97 1
 192   96  204 1
 193   96  205 1
 194   97   98 1
 195   97   99 2
 196   98  206 1
 197  100  101 1
 198  100  207 1
 199  101  104 1
 200  101  102 1
 201  101  208 1
 202  102  103 2
 203  102  109 am
 204  104  105 1
 205  104  209 1
 206  104  210 1
 207  105  106 1
 208  105  211 1
 209  105  212 1
 210  106  107 1
 211  106  108 2
 212  107  213 1
 213  109  110 1
 214  109  214 1
 215  110  113 1
 216  110  111 1
 217  110  215 1
 218  111  112 2
 219  111  216 1
 220  113  114 1
 221  113  217 1
 222  113  218 1

#	End of record

