#	Name: ASD01948061
#	Creating user name:	WinNT
#	Creation time:	15. 06. 2019 20:13

#	Modifying user name:	WinNT
#	Modification time:	15. 06. 2019 20:13

#	Program:	/corina/corina34_cracker 3.40 0067  02.08.2006

@<TRIPOS>MOLECULE
ASD01948061
  67   71    0    0    0
SMALL
NO_CHARGES


@<TRIPOS>ATOM
   1 C1            -0.5232     1.2674     1.0984 C.3     
   2 C2            -0.3877    -0.2510     1.2283 C.3     
   3 C3             0.8549     0.6379     1.3116 C.3     
   4 S4            -0.8926     1.9377    -0.5463 S.o2    
   5 O5             0.1622     1.6449    -1.4524 O.2     
   6 O6            -2.2475     1.6878    -0.8938 O.2     
   7 N7            -0.8177     3.5802    -0.3495 N.am    
   8 C8             1.5768     3.4698    -0.1281 C.2     
   9 C9             0.4197     4.2032    -0.0888 C.2     
  10 C10            0.4651     5.5753     0.2105 C.2     
  11 C11            1.6937     6.1709     0.4679 C.2     
  12 C12            2.8469     5.3908     0.4157 C.2     
  13 N13            2.7742     4.0814     0.1157 N.am    
  14 O14            1.7354     2.1435    -0.3802 O.3     
  15 C15            3.8385     3.0673    -0.0244 C.3     
  16 C16            3.1063     1.9176    -0.7533 C.3     
  17 O17            3.9341     5.9007     0.6440 O.2     
  18 C18            1.7777     7.6389     0.7980 C.3     
  19 N19           -0.7007     6.3250     0.2481 N.pl3   
  20 C20           -1.5055     6.4246    -0.8920 C.ar    
  21 C21           -2.6779     7.1728    -0.8548 C.ar    
  22 C22           -3.4702     7.2686    -1.9835 C.ar    
  23 C23           -3.0977     6.6214    -3.1484 C.ar    
  24 C24           -1.9329     5.8769    -3.1874 C.ar    
  25 C25           -1.1331     5.7819    -2.0646 C.ar    
  26 I26           -4.3012     6.7691    -4.8569 I       
  27 F27           -3.0416     7.8043     0.2828 F       
  28 C28           -1.1436     2.0245     2.2743 C.3     
  29 C29           -1.0415     3.5302     2.0224 C.3     
  30 C30           -1.5223     4.2883     3.2614 C.3     
  31 O31           -1.3148     5.6895     3.0727 O.3     
  32 C32           -1.6301     6.4833     4.2184 C.3     
  33 C33           -1.2597     7.9195     3.9518 C.ar    
  34 C34           -2.1468     8.7516     3.2950 C.ar    
  35 C35           -1.8071    10.0691     3.0505 C.ar    
  36 C36           -0.5803    10.5545     3.4632 C.ar    
  37 C37            0.3065     9.7226     4.1209 C.ar    
  38 C38           -0.0351     8.4063     4.3692 C.ar    
  39 H39           -0.7404    -0.7106     2.1516 H       
  40 H40           -0.5204    -0.8472     0.3256 H       
  41 H41            1.5396     0.6265     0.4635 H       
  42 H42            1.3195     0.7631     2.2896 H       
  43 H43           -1.6253     4.1137    -0.4136 H       
  44 H44            4.6603     3.4491    -0.6302 H       
  45 H45            4.1948     2.7418     0.9530 H       
  46 H46            3.4514     0.9482    -0.3938 H       
  47 H47            3.2331     1.9997    -1.8328 H       
  48 H48            1.6068     7.7817     1.8650 H       
  49 H49            2.7665     8.0145     0.5350 H       
  50 H50            1.0205     8.1823     0.2329 H       
  51 H51           -0.9584     6.7805     1.0649 H       
  52 H52           -4.3808     7.8488    -1.9560 H       
  53 H53           -1.6457     5.3725    -4.0981 H       
  54 H54           -0.2211     5.2044    -2.0980 H       
  55 H55           -2.1919     1.7433     2.3751 H       
  56 H56           -0.6101     1.7725     3.1908 H       
  57 H57           -0.0046     3.7943     1.8145 H       
  58 H58           -1.6631     3.7986     1.1682 H       
  59 H59           -2.5840     4.0958     3.4159 H       
  60 H60           -0.9614     3.9522     4.1334 H       
  61 H61           -2.6984     6.4157     4.4243 H       
  62 H62           -1.0703     6.1174     5.0791 H       
  63 H63           -3.1053     8.3724     2.9725 H       
  64 H64           -2.4999    10.7190     2.5367 H       
  65 H65           -0.3145    11.5836     3.2716 H       
  66 H66            1.2650    10.1018     4.4430 H       
  67 H67            0.6562     7.7574     4.8863 H       
@<TRIPOS>BOND
   1    1    2 1
   2    1    3 1
   3    1    4 1
   4    1   28 1
   5    2    3 1
   6    2   39 1
   7    2   40 1
   8    3   41 1
   9    3   42 1
  10    4    5 2
  11    4    6 2
  12    4    7 am
  13    7    9 1
  14    7   43 1
  15    8    9 2
  16    8   13 1
  17    8   14 1
  18    9   10 1
  19   10   11 2
  20   10   19 1
  21   11   12 1
  22   11   18 1
  23   12   13 am
  24   12   17 2
  25   13   15 1
  26   14   16 1
  27   15   16 1
  28   15   44 1
  29   15   45 1
  30   16   46 1
  31   16   47 1
  32   18   48 1
  33   18   49 1
  34   18   50 1
  35   19   20 1
  36   19   51 1
  37   20   21 ar
  38   20   25 ar
  39   21   22 ar
  40   21   27 1
  41   22   23 ar
  42   22   52 1
  43   23   24 ar
  44   23   26 1
  45   24   25 ar
  46   24   53 1
  47   25   54 1
  48   28   29 1
  49   28   55 1
  50   28   56 1
  51   29   30 1
  52   29   57 1
  53   29   58 1
  54   30   31 1
  55   30   59 1
  56   30   60 1
  57   31   32 1
  58   32   33 1
  59   32   61 1
  60   32   62 1
  61   33   34 ar
  62   33   38 ar
  63   34   35 ar
  64   34   63 1
  65   35   36 ar
  66   35   64 1
  67   36   37 ar
  68   36   65 1
  69   37   38 ar
  70   37   66 1
  71   38   67 1

#	End of record

