#	Name: ASD01190074
#	Creating user name:	WinNT
#	Creation time:	15. 06. 2019 19:07

#	Modifying user name:	WinNT
#	Modification time:	15. 06. 2019 19:07

#	Program:	/corina/corina34_cracker 3.40 0067  02.08.2006

@<TRIPOS>MOLECULE
ASD01190074
  45   48    0    0    0
SMALL
NO_CHARGES


@<TRIPOS>ATOM
   1 C1             5.2558    -2.6127    -3.4485 C.2     
   2 C2             6.1142    -2.3496    -2.3673 C.2     
   3 C3             5.6257    -1.7062    -1.2682 C.2     
   4 C4             4.2778    -1.3216    -1.2419 C.2     
   5 C5             3.4777    -1.5900    -2.3001 C.2     
   6 N6             3.9657    -2.2306    -3.3932 N.am    
   7 O7             5.6811    -3.1832    -4.4402 O.2     
   8 C8             3.7200    -0.6102    -0.0362 C.3     
   9 C9             4.5708     0.6251     0.2660 C.3     
  10 O10            2.3742    -0.2087    -0.3003 O.3     
  11 N11            4.0730    -4.0724     4.3795 N.pl3   
  12 N12            5.4656    -4.1709     4.4656 N.2     
  13 C13            6.0237    -3.4530     3.5324 C.2     
  14 C14            4.9599    -2.8226     2.7573 C.ar    
  15 C15            4.9394    -1.9599     1.6557 C.ar    
  16 C16            3.7435    -1.5389     1.1504 C.ar    
  17 C17            2.5473    -1.9580     1.7201 C.ar    
  18 C18            2.5418    -2.7996     2.7962 C.ar    
  19 C19            3.7463    -3.2461     3.3330 C.ar    
  20 C20            3.1585    -4.7180     5.2218 C.ar    
  21 C21            3.4388    -5.9876     5.7094 C.ar    
  22 C22            2.5360    -6.6223     6.5397 C.ar    
  23 C23            1.3518    -5.9934     6.8860 C.ar    
  24 C24            1.0703    -4.7272     6.4009 C.ar    
  25 C25            1.9731    -4.0867     5.5750 C.ar    
  26 F26            0.4697    -6.6161     7.6980 F       
  27 F27            4.5490     1.4872    -0.8355 F       
  28 F28            4.0529     1.2855     1.3854 F       
  29 F29            5.8883     0.2320     0.5246 F       
  30 C30            7.5590    -2.7745    -2.4213 C.3     
  31 H31            6.2701    -1.4957    -0.4275 H       
  32 H32            2.4401    -1.2916    -2.2747 H       
  33 H33            3.3785    -2.4148    -4.1429 H       
  34 H34            1.7770    -0.9424    -0.5003 H       
  35 H35            7.0847    -3.3437     3.3629 H       
  36 H36            5.8648    -1.6290     1.2079 H       
  37 H37            1.6105    -1.6139     1.3072 H       
  38 H38            1.6052    -3.1176     3.2298 H       
  39 H39            4.3621    -6.4786     5.4393 H       
  40 H40            2.7535    -7.6099     6.9188 H       
  41 H41            0.1461    -4.2386     6.6719 H       
  42 H42            1.7554    -3.0973     5.2007 H       
  43 H43            7.7569    -3.2694    -3.3721 H       
  44 H44            8.1994    -1.8973    -2.3281 H       
  45 H45            7.7659    -3.4640    -1.6028 H       
@<TRIPOS>BOND
   1    1    2 1
   2    1    6 am
   3    1    7 2
   4    2    3 2
   5    2   30 1
   6    3    4 1
   7    3   31 1
   8    4    5 2
   9    4    8 1
  10    5    6 1
  11    5   32 1
  12    6   33 1
  13    8    9 1
  14    8   10 1
  15    8   16 1
  16    9   27 1
  17    9   28 1
  18    9   29 1
  19   10   34 1
  20   11   12 1
  21   11   19 1
  22   11   20 1
  23   12   13 2
  24   13   14 1
  25   13   35 1
  26   14   15 ar
  27   14   19 ar
  28   15   16 ar
  29   15   36 1
  30   16   17 ar
  31   17   18 ar
  32   17   37 1
  33   18   19 ar
  34   18   38 1
  35   20   21 ar
  36   20   25 ar
  37   21   22 ar
  38   21   39 1
  39   22   23 ar
  40   22   40 1
  41   23   24 ar
  42   23   26 1
  43   24   25 ar
  44   24   41 1
  45   25   42 1
  46   30   43 1
  47   30   44 1
  48   30   45 1

#	End of record

