#	Name: ASD01915438
#	Creating user name:	WinNT
#	Creation time:	15. 06. 2019 20:05

#	Modifying user name:	WinNT
#	Modification time:	15. 06. 2019 20:05

#	Program:	/corina/corina34_cracker 3.40 0067  02.08.2006

@<TRIPOS>MOLECULE
ASD01915438
  42   46    0    0    0
SMALL
NO_CHARGES


@<TRIPOS>ATOM
   1 N1             0.0461     1.4113     0.3053 N.pl3   
   2 N2             0.0889     0.0199     0.4309 N.2     
   3 C3             1.2953    -0.4180     0.1647 C.2     
   4 C4             2.1228     0.7480    -0.1620 C.ar    
   5 C5             1.2817     1.8754    -0.0570 C.ar    
   6 N6             1.7568     3.0909    -0.2988 N.ar    
   7 C7             3.4605     0.9150    -0.5212 C.ar    
   8 C8             3.9180     2.2096    -0.7656 C.ar    
   9 C9             3.0171     3.2896    -0.6421 C.ar    
  10 C10            1.7412    -1.8313     0.1899 C.ar    
  11 C11            2.9376    -2.1766     0.8169 C.ar    
  12 C12            3.3477    -3.4940     0.8371 C.ar    
  13 C13            2.5745    -4.4713     0.2365 C.ar    
  14 C14            1.3867    -4.1347    -0.3876 C.ar    
  15 C15            0.9631    -2.8215    -0.4085 C.ar    
  16 C16            5.2815     2.4400    -1.1375 C.1     
  17 N17            6.3632     2.6228    -1.4324 N.1     
  18 C18            3.4930     4.6682    -0.9001 C.ar    
  19 C19            2.6435     5.6030    -1.4916 C.ar    
  20 C20            3.0924     6.8859    -1.7291 C.ar    
  21 C21            4.3824     7.2457    -1.3821 C.ar    
  22 C22            5.2298     6.3230    -0.7951 C.ar    
  23 C23            4.7905     5.0386    -0.5474 C.ar    
  24 C24            4.3845    -0.2694    -0.6413 C.3     
  25 C25            4.0724    -1.3018    -1.7265 C.3     
  26 C26            5.2636    -0.3558    -1.8906 C.3     
  27 H27           -0.7391     1.9625     0.4486 H       
  28 H28            3.5424    -1.4144     1.2856 H       
  29 H29            4.2743    -3.7626     1.3226 H       
  30 H30            2.8997    -5.5010     0.2545 H       
  31 H31            0.7874    -4.9018    -0.8553 H       
  32 H32            0.0330    -2.5606    -0.8914 H       
  33 H33            1.6364     5.3231    -1.7636 H       
  34 H34            2.4356     7.6106    -2.1871 H       
  35 H35            4.7296     8.2508    -1.5706 H       
  36 H36            6.2359     6.6096    -0.5268 H       
  37 H37            5.4515     4.3203    -0.0853 H       
  38 H38            4.8039    -0.6354     0.2958 H       
  39 H39            4.2868    -2.3470    -1.5034 H       
  40 H40            3.1986    -1.1244    -2.3536 H       
  41 H41            5.1735     0.4441    -2.6257 H       
  42 H42            6.2616    -0.7785    -1.7755 H       
@<TRIPOS>BOND
   1    1    2 1
   2    1    5 1
   3    1   27 1
   4    2    3 2
   5    3    4 1
   6    3   10 1
   7    4    7 ar
   8    4    5 ar
   9    5    6 ar
  10    6    9 ar
  11    7    8 ar
  12    7   24 1
  13    8    9 ar
  14    8   16 1
  15    9   18 1
  16   10   11 ar
  17   10   15 ar
  18   11   12 ar
  19   11   28 1
  20   12   13 ar
  21   12   29 1
  22   13   14 ar
  23   13   30 1
  24   14   15 ar
  25   14   31 1
  26   15   32 1
  27   16   17 3
  28   18   19 ar
  29   18   23 ar
  30   19   20 ar
  31   19   33 1
  32   20   21 ar
  33   20   34 1
  34   21   22 ar
  35   21   35 1
  36   22   23 ar
  37   22   36 1
  38   23   37 1
  39   24   25 1
  40   24   26 1
  41   24   38 1
  42   25   26 1
  43   25   39 1
  44   25   40 1
  45   26   41 1
  46   26   42 1

#	End of record

