#	Name: ASD03082051
#	Creating user name:	WinNT
#	Creation time:	15. 06. 2019 20:27

#	Modifying user name:	WinNT
#	Modification time:	15. 06. 2019 20:27

#	Program:	/corina/corina34_cracker 3.40 0067  02.08.2006

@<TRIPOS>MOLECULE
ASD03082051
  65   69    0    0    0
SMALL
NO_CHARGES


@<TRIPOS>ATOM
   1 C1            -0.0126     1.4664    -0.0006 C.3     
   2 N2            -0.2640     0.0138     0.0906 N.3     
   3 C3             0.2973    -0.6900    -1.0688 C.3     
   4 C4            -0.2811    -0.1274    -2.3694 C.3     
   5 C5            -0.0342     1.3935    -2.3995 C.3     
   6 C6            -0.8350     1.9864    -1.2088 C.3     
   7 C7             1.4403     1.6210    -1.9938 C.3     
   8 C8             1.4547     1.6594    -0.4453 C.3     
   9 O9             1.8306     2.9487    -2.3988 O.3     
  10 O10            1.8612     3.0033    -0.1146 O.3     
  11 C11            2.5789     3.4671    -1.2782 C.3     
  12 C12            4.0034     2.9090    -1.2839 C.3     
  13 C13            2.6037     4.9965    -1.3150 C.3     
  14 C14            0.2658    -0.5344     1.3463 C.3     
  15 C15           -0.5403     0.0174     2.5239 C.3     
  16 O16            0.3757    -0.7504    -3.5047 O.3     
  17 C17           -0.1787    -1.8794    -3.9882 C.2     
  18 C18            0.4339    -2.5668    -5.1398 C.ar    
  19 O19           -1.1834    -2.3308    -3.4753 O.2     
  20 C20            1.5889    -2.0515    -5.7326 C.ar    
  21 C21            2.1569    -2.6993    -6.8087 C.ar    
  22 C22            1.5879    -3.8600    -7.3059 C.ar    
  23 C23            0.4457    -4.3808    -6.7301 C.ar    
  24 C24           -0.1365    -3.7457    -5.6429 C.ar    
  25 N25           -1.2914    -4.2708    -5.0595 N.am    
  26 C26           -1.2577    -5.1589    -4.0582 C.2     
  27 C27           -2.6737    -5.5181    -3.6637 C.3     
  28 C28           -3.5406    -4.6748    -4.6206 C.3     
  29 C29           -2.5234    -3.9234    -5.4515 C.2     
  30 O30           -0.2522    -5.6048    -3.5487 O.2     
  31 O31           -2.7829    -3.1370    -6.3367 O.2     
  32 C32           -2.9303    -7.0110    -3.8789 C.3     
  33 C33            0.1557    -2.0602     1.3233 C.3     
  34 H34           -0.2397     1.9875     0.9294 H       
  35 H35            1.3804    -0.5675    -1.0742 H       
  36 H36            0.0562    -1.7506    -0.9971 H       
  37 H37           -1.3523    -0.3251    -2.4092 H       
  38 H38           -0.2977     1.8454    -3.3557 H       
  39 H39           -1.8523     1.5954    -1.1876 H       
  40 H40           -0.8366     3.0759    -1.2417 H       
  41 H41            2.0997     0.8573    -2.4062 H       
  42 H42            2.1133     0.9010    -0.0219 H       
  43 H43            4.5032     3.1979    -2.2085 H       
  44 H44            4.5540     3.3096    -0.4327 H       
  45 H45            3.9680     1.8218    -1.2144 H       
  46 H46            1.5836     5.3777    -1.2675 H       
  47 H47            3.1717     5.3713    -0.4635 H       
  48 H48            3.0735     5.3300    -2.2403 H       
  49 H49            1.3116    -0.2472     1.4555 H       
  50 H50           -1.5861    -0.2698     2.4147 H       
  51 H51           -0.1472    -0.3894     3.4557 H       
  52 H52           -0.4619     1.1044     2.5403 H       
  53 H53            2.0360    -1.1465    -5.3487 H       
  54 H54            3.0497    -2.2996    -7.2664 H       
  55 H55            2.0400    -4.3607    -8.1494 H       
  56 H56            0.0077    -5.2860    -7.1241 H       
  57 H57           -2.8652    -5.2405    -2.6272 H       
  58 H58           -4.1547    -5.3188    -5.2501 H       
  59 H59           -4.1635    -3.9776    -4.0602 H       
  60 H60           -2.2537    -7.5903    -3.2507 H       
  61 H61           -3.9615    -7.2443    -3.6138 H       
  62 H62           -2.7586    -7.2620    -4.9257 H       
  63 H63            0.8221    -2.4611     0.5595 H       
  64 H64            0.4377    -2.4596     2.2975 H       
  65 H65           -0.8711    -2.3471     1.0965 H       
@<TRIPOS>BOND
   1    1    2 1
   2    1    8 1
   3    1    6 1
   4    1   34 1
   5    2    3 1
   6    2   14 1
   7    3    4 1
   8    3   35 1
   9    3   36 1
  10    4    5 1
  11    4   16 1
  12    4   37 1
  13    5    6 1
  14    5    7 1
  15    5   38 1
  16    6   39 1
  17    6   40 1
  18    7    9 1
  19    7    8 1
  20    7   41 1
  21    8   10 1
  22    8   42 1
  23    9   11 1
  24   10   11 1
  25   11   12 1
  26   11   13 1
  27   12   43 1
  28   12   44 1
  29   12   45 1
  30   13   46 1
  31   13   47 1
  32   13   48 1
  33   14   15 1
  34   14   33 1
  35   14   49 1
  36   15   50 1
  37   15   51 1
  38   15   52 1
  39   16   17 1
  40   17   18 1
  41   17   19 2
  42   18   20 ar
  43   18   24 ar
  44   20   21 ar
  45   20   53 1
  46   21   22 ar
  47   21   54 1
  48   22   23 ar
  49   22   55 1
  50   23   24 ar
  51   23   56 1
  52   24   25 1
  53   25   26 am
  54   25   29 am
  55   26   27 1
  56   26   30 2
  57   27   28 1
  58   27   32 1
  59   27   57 1
  60   28   29 1
  61   28   58 1
  62   28   59 1
  63   29   31 2
  64   32   60 1
  65   32   61 1
  66   32   62 1
  67   33   63 1
  68   33   64 1
  69   33   65 1

#	End of record

