#	Name: ASD01881690
#	Creating user name:	WinNT
#	Creation time:	15. 06. 2019 19:43

#	Modifying user name:	WinNT
#	Modification time:	15. 06. 2019 19:43

#	Program:	/corina/corina34_cracker 3.40 0067  02.08.2006

@<TRIPOS>MOLECULE
ASD01881690
  49   52    0    0    0
SMALL
NO_CHARGES


@<TRIPOS>ATOM
   1 N1            -0.0714     1.2962     0.6489 N.pl3   
   2 N2            -0.0760     0.0329     0.9008 N.2     
   3 N3             1.1170    -0.4433     0.9742 N.2     
   4 C4             2.0052     0.5483     0.7604 C.ar    
   5 C5             1.2356     1.7070     0.5433 C.ar    
   6 C6             3.3997     0.6294     0.7194 C.ar    
   7 C7             4.0023     1.8458     0.4663 C.ar    
   8 C8             3.2297     2.9850     0.2532 C.ar    
   9 C9             1.8648     2.9188     0.2900 C.ar    
  10 O10            5.3588     1.9321     0.4254 O.3     
  11 C11            5.9192     3.2194     0.1590 C.3     
  12 N12            9.9954     4.0273     1.1598 N.3     
  13 C13            9.5720     4.3799    -0.2014 C.3     
  14 C14            8.0452     4.4683    -0.2554 C.3     
  15 C15            7.4460     3.1195     0.1522 C.3     
  16 C16            7.9410     2.7527     1.5540 C.3     
  17 C17            9.4709     2.7140     1.5555 C.3     
  18 C18           11.4586     4.0688     1.2834 C.3     
  19 C19           11.9208     5.5238     1.3838 C.3     
  20 F20           11.6469     6.1842     0.1813 F       
  21 F21           11.2412     6.1579     2.4294 F       
  22 C22           -1.2546     2.1463     0.4953 C.3     
  23 C23           -1.6472     2.7247     1.8562 C.3     
  24 C24           -2.7942     3.7367     1.8895 C.3     
  25 C25           -3.0070     2.3212     2.4297 C.3     
  26 Br26           4.4530    -0.9142     1.0086 Br      
  27 H27            3.7139     3.9301     0.0567 H       
  28 H28            1.2761     3.8087     0.1230 H       
  29 H29            5.5739     3.5720    -0.8129 H       
  30 H30            5.6044     3.9199     0.9325 H       
  31 H31           10.0016     5.3430    -0.4773 H       
  32 H32            9.9164     3.6158    -0.8983 H       
  33 H33            7.7010     5.2418     0.4311 H       
  34 H34            7.7305     4.7148    -1.2695 H       
  35 H35            7.7577     2.3531    -0.5573 H       
  36 H36            7.5951     3.4992     2.2690 H       
  37 H37            7.5519     1.7734     1.8326 H       
  38 H38            9.8157     1.9577     0.8504 H       
  39 H39            9.8269     2.4671     2.5557 H       
  40 H40           11.7630     3.5282     2.1796 H       
  41 H41           11.9106     3.6036     0.4073 H       
  42 H42           12.9931     5.5518     1.5776 H       
  43 H43           -1.0303     2.9600    -0.1943 H       
  44 H44           -2.0796     1.5529     0.1011 H       
  45 H45           -0.8272     2.8702     2.5595 H       
  46 H46           -2.7290     4.5477     2.6148 H       
  47 H47           -3.2692     3.9904     0.9418 H       
  48 H48           -3.6220     1.6436     1.8375 H       
  49 H49           -3.0818     2.2009     3.5105 H       
@<TRIPOS>BOND
   1    1    2 1
   2    1    5 1
   3    1   22 1
   4    2    3 2
   5    3    4 1
   6    4    5 ar
   7    4    6 ar
   8    5    9 ar
   9    6    7 ar
  10    6   26 1
  11    7    8 ar
  12    7   10 1
  13    8    9 ar
  14    8   27 1
  15    9   28 1
  16   10   11 1
  17   11   15 1
  18   11   29 1
  19   11   30 1
  20   12   13 1
  21   12   17 1
  22   12   18 1
  23   13   14 1
  24   13   31 1
  25   13   32 1
  26   14   15 1
  27   14   33 1
  28   14   34 1
  29   15   16 1
  30   15   35 1
  31   16   17 1
  32   16   36 1
  33   16   37 1
  34   17   38 1
  35   17   39 1
  36   18   19 1
  37   18   40 1
  38   18   41 1
  39   19   20 1
  40   19   21 1
  41   19   42 1
  42   22   23 1
  43   22   43 1
  44   22   44 1
  45   23   24 1
  46   23   25 1
  47   23   45 1
  48   24   25 1
  49   24   46 1
  50   24   47 1
  51   25   48 1
  52   25   49 1

#	End of record

