#	Name: ASD01910534
#	Creating user name:	WinNT
#	Creation time:	15. 06. 2019 19:56

#	Modifying user name:	WinNT
#	Modification time:	15. 06. 2019 19:56

#	Program:	/corina/corina34_cracker 3.40 0067  02.08.2006

@<TRIPOS>MOLECULE
ASD01910534
  44   47    0    0    0
SMALL
NO_CHARGES


@<TRIPOS>ATOM
   1 N1             0.1368     0.5838    -0.2524 N.2     
   2 C2             0.2909    -0.7167    -0.2125 C.2     
   3 N3             1.6218    -0.9585    -0.1574 N.2     
   4 C4             2.1938     0.2192    -0.1675 C.2     
   5 O5             1.2186     1.1316    -0.2272 O.3     
   6 C6            -0.7856    -1.7292    -0.2245 C.2     
   7 C7            -2.1239    -1.4770    -0.2798 C.2     
   8 C8            -2.7830    -2.7156    -0.2715 C.2     
   9 C9            -1.8403    -3.6823    -0.2119 C.2     
  10 N10           -0.6151    -3.0902    -0.1880 N.pl3   
  11 C11            3.9997     1.3308     1.1216 C.3     
  12 C12            3.6747     0.4946    -0.1201 C.3     
  13 C13            4.0908     1.2674    -1.3739 C.3     
  14 C14            5.6001     1.5190    -1.3425 C.3     
  15 C15            5.9470     2.3668    -0.1146 C.3     
  16 N16            5.4214     1.6998     1.0844 N.am    
  17 C17            6.2282     1.4311     2.1300 C.2     
  18 C18            5.6613     0.8793     3.3777 C.ar    
  19 O19            7.4224     1.6428     2.0465 O.2     
  20 C20           -4.2739    -2.9296    -0.3197 C.3     
  21 C21            4.4492     1.3658     3.8849 C.ar    
  22 C22            3.9605     0.8165     5.0550 C.ar    
  23 C23            4.6789    -0.1896     5.6841 C.ar    
  24 N24            5.8202    -0.6278     5.1817 N.ar    
  25 C25            6.3216    -0.1388     4.0668 C.ar    
  26 F26            4.2050    -0.7295     6.8283 F       
  27 H27           -2.5906    -0.5039    -0.3218 H       
  28 H28           -2.0276    -4.7457    -0.1905 H       
  29 H29            0.2364    -3.5530    -0.1461 H       
  30 H30            3.3880     2.2330     1.1250 H       
  31 H31            3.7973     0.7462     2.0190 H       
  32 H32            4.2194    -0.4485    -0.0765 H       
  33 H33            3.8381     0.6851    -2.2599 H       
  34 H34            3.5642     2.2212    -1.4040 H       
  35 H35            6.1267     0.5663    -1.2874 H       
  36 H36            5.8994     2.0489    -2.2468 H       
  37 H37            7.0294     2.4658    -0.0329 H       
  38 H38            5.4941     3.3535    -0.2120 H       
  39 H39           -4.5963    -3.0078    -1.3580 H       
  40 H40           -4.5264    -3.8486     0.2094 H       
  41 H41           -4.7774    -2.0873     0.1547 H       
  42 H42            3.9106     2.1506     3.3745 H       
  43 H43            3.0295     1.1670     5.4754 H       
  44 H44            7.2569    -0.5228     3.6870 H       
@<TRIPOS>BOND
   1    1    2 2
   2    1    5 1
   3    2    3 1
   4    2    6 1
   5    3    4 2
   6    4    5 1
   7    4   12 1
   8    6    7 2
   9    6   10 1
  10    7    8 1
  11    7   27 1
  12    8    9 2
  13    8   20 1
  14    9   10 1
  15    9   28 1
  16   10   29 1
  17   11   12 1
  18   11   16 1
  19   11   30 1
  20   11   31 1
  21   12   13 1
  22   12   32 1
  23   13   14 1
  24   13   33 1
  25   13   34 1
  26   14   15 1
  27   14   35 1
  28   14   36 1
  29   15   16 1
  30   15   37 1
  31   15   38 1
  32   16   17 am
  33   17   18 1
  34   17   19 2
  35   18   21 ar
  36   18   25 ar
  37   20   39 1
  38   20   40 1
  39   20   41 1
  40   21   22 ar
  41   21   42 1
  42   22   23 ar
  43   22   43 1
  44   23   24 ar
  45   23   26 1
  46   24   25 ar
  47   25   44 1

#	End of record

