#	Name: ASD05660005
#	Creating user name:	WinNT
#	Creation time:	15. 06. 2019 21:01

#	Modifying user name:	WinNT
#	Modification time:	15. 06. 2019 21:01

#	Program:	/corina/corina34_cracker 3.40 0067  02.08.2006

@<TRIPOS>MOLECULE
ASD05660005
  33   32    0    0    0
SMALL
NO_CHARGES


@<TRIPOS>ATOM
   1 C1            -0.0446    -2.1307    -1.3389 C.2     
   2 S2             0.0726    -0.9898    -0.0011 S.3     
   3 P3            -1.9822    -0.5644     0.3008 P.3     
   4 S4            -2.1614     0.7064     1.6520 S.2     
   5 C5            -1.3471    -3.6164    -2.6884 C.2     
   6 C6            -1.2566    -2.5644    -1.7535 C.2     
   7 C7             1.2054    -2.6183    -2.0249 C.3     
   8 O8            -0.3422    -4.2071    -3.0391 O.2     
   9 O9            -2.6176     0.0091    -1.0628 O.3     
  10 C10           -2.2255     1.2561    -1.6400 C.3     
  11 C11           -3.1050     1.5543    -2.8560 C.3     
  12 O12           -2.7525    -1.9125     0.7264 O.3     
  13 C13           -2.6469    -2.4912     2.0288 C.3     
  14 C14           -3.5014    -3.7586     2.0945 C.3     
  15 O15           -2.5482    -3.9683    -3.1943 O.3     
  16 C16           -2.5657    -5.0425    -4.1365 C.3     
  17 H17           -2.1551    -2.1050    -1.3688 H       
  18 H18            1.5183    -3.5635    -1.5812 H       
  19 H19            1.0041    -2.7642    -3.0862 H       
  20 H20            1.9981    -1.8800    -1.9036 H       
  21 H21           -2.3430     2.0505    -0.9030 H       
  22 H22           -1.1823     1.2005    -1.9511 H       
  23 H23           -4.1482     1.6099    -2.5449 H       
  24 H24           -2.8059     2.5055    -3.2962 H       
  25 H25           -2.9875     0.7599    -3.5930 H       
  26 H26           -1.6060    -2.7438     2.2307 H       
  27 H27           -2.9985    -1.7769     2.7733 H       
  28 H28           -4.5423    -3.5060     1.8925 H       
  29 H29           -3.1498    -4.4729     1.3500 H       
  30 H30           -3.4208    -4.2000     3.0879 H       
  31 H31           -1.9506    -4.7808    -4.9974 H       
  32 H32           -2.1700    -5.9435    -3.6677 H       
  33 H33           -3.5899    -5.2227    -4.4630 H       
@<TRIPOS>BOND
   1    1    2 1
   2    1    7 1
   3    1    6 2
   4    2    3 1
   5    3    4 2
   6    3    9 1
   7    3   12 1
   8    5    6 1
   9    5    8 2
  10    5   15 1
  11    6   17 1
  12    7   18 1
  13    7   19 1
  14    7   20 1
  15    9   10 1
  16   10   11 1
  17   10   21 1
  18   10   22 1
  19   11   23 1
  20   11   24 1
  21   11   25 1
  22   12   13 1
  23   13   14 1
  24   13   26 1
  25   13   27 1
  26   14   28 1
  27   14   29 1
  28   14   30 1
  29   15   16 1
  30   16   31 1
  31   16   32 1
  32   16   33 1

#	End of record

