#	Name: ASD01914115
#	Creating user name:	WinNT
#	Creation time:	15. 06. 2019 20:02

#	Modifying user name:	WinNT
#	Modification time:	15. 06. 2019 20:02

#	Program:	/corina/corina34_cracker 3.40 0067  02.08.2006

@<TRIPOS>MOLECULE
ASD01914115
  47   48    0    0    0
SMALL
NO_CHARGES


@<TRIPOS>ATOM
   1 C1            -0.0167     1.3783     0.0096 C.ar    
   2 C2             0.0021    -0.0041     0.0020 C.ar    
   3 C3             2.3997     0.0285    -0.0208 C.ar    
   4 C4             2.3807     1.4151    -0.0136 C.ar    
   5 O5             3.5853    -0.6355    -0.0366 O.3     
   6 C6             1.2066    -0.6801    -0.0132 C.ar    
   7 C7             1.1719     2.0887     0.0021 C.ar    
   8 C8             3.5291    -2.0634    -0.0433 C.3     
   9 C9             4.9290    -2.6212    -0.0608 C.ar    
  10 N10            5.1065    -3.9284    -0.0693 N.ar    
  11 C11            6.3081    -4.4671    -0.0847 C.ar    
  12 C12            7.4469    -3.6610    -0.0921 C.ar    
  13 C13            7.2907    -2.2696    -0.0834 C.ar    
  14 C14            6.0069    -1.7539    -0.0734 C.ar    
  15 C15            8.7958    -4.2659    -0.1084 C.2     
  16 N16            8.9331    -5.6066    -0.1162 N.am    
  17 C17           10.2698    -6.2060    -0.1323 C.3     
  18 O18            9.7811    -3.5540    -0.1147 O.2     
  19 C19           10.1942    -7.6047    -0.7479 C.3     
  20 C20            9.2536    -8.4781     0.0847 C.3     
  21 C21           10.8008    -6.3068     1.2991 C.3     
  22 C22            9.6631    -7.5038    -2.1792 C.3     
  23 C23           11.5901    -8.2306    -0.7647 C.3     
  24 F24            1.1515     3.4395     0.0091 F       
  25 H25           -0.9596     1.9048     0.0170 H       
  26 H26           -0.9262    -0.5561     0.0083 H       
  27 H27            3.3080     1.9685    -0.0198 H       
  28 H28            1.2198    -1.7600    -0.0187 H       
  29 H29            3.0107    -2.4108     0.8505 H       
  30 H30            2.9920    -2.4018    -0.9294 H       
  31 H31            6.4130    -5.5419    -0.0912 H       
  32 H32            8.1502    -1.6156    -0.0888 H       
  33 H33            5.8479    -0.6857    -0.0666 H       
  34 H34            8.1469    -6.1747    -0.1111 H       
  35 H35           10.9399    -5.5837    -0.7254 H       
  36 H36            8.2590    -8.0322     0.0967 H       
  37 H37            9.1997    -9.4746    -0.3539 H       
  38 H38            9.6319    -8.5500     1.1044 H       
  39 H39           11.7953    -6.7528     1.2871 H       
  40 H40           10.8547    -5.3104     1.7376 H       
  41 H41           10.1307    -6.9291     1.8922 H       
  42 H42           10.3332    -6.8816    -2.7724 H       
  43 H43            9.6092    -8.5003    -2.6178 H       
  44 H44            8.6686    -7.0579    -2.1672 H       
  45 H45           11.9684    -8.3025     0.2550 H       
  46 H46           11.5362    -9.2271    -1.2033 H       
  47 H47           12.2602    -7.6084    -1.3579 H       
@<TRIPOS>BOND
   1    1    2 ar
   2    1    7 ar
   3    1   25 1
   4    2    6 ar
   5    2   26 1
   6    3    4 ar
   7    3    5 1
   8    3    6 ar
   9    4    7 ar
  10    4   27 1
  11    5    8 1
  12    6   28 1
  13    7   24 1
  14    8    9 1
  15    8   29 1
  16    8   30 1
  17    9   10 ar
  18    9   14 ar
  19   10   11 ar
  20   11   12 ar
  21   11   31 1
  22   12   13 ar
  23   12   15 1
  24   13   14 ar
  25   13   32 1
  26   14   33 1
  27   15   16 am
  28   15   18 2
  29   16   17 1
  30   16   34 1
  31   17   19 1
  32   17   21 1
  33   17   35 1
  34   19   22 1
  35   19   23 1
  36   19   20 1
  37   20   36 1
  38   20   37 1
  39   20   38 1
  40   21   39 1
  41   21   40 1
  42   21   41 1
  43   22   42 1
  44   22   43 1
  45   22   44 1
  46   23   45 1
  47   23   46 1
  48   23   47 1

#	End of record

