#	Name: ASD00100166
#	Creating user name:	WinNT
#	Creation time:	15. 06. 2019 18:30

#	Modifying user name:	WinNT
#	Modification time:	15. 06. 2019 18:30

#	Program:	/corina/corina34_cracker 3.40 0067  02.08.2006

@<TRIPOS>MOLECULE
ASD00100166
  52   54    0    0    0
SMALL
NO_CHARGES


@<TRIPOS>ATOM
   1 C1            -2.3348     1.5172     1.6965 C.3     
   2 C2            -2.0096     0.0222     1.7007 C.3     
   3 C3            -3.3072    -0.7823     1.6013 C.3     
   4 S4            -0.9455    -0.3691     0.2846 S.o2    
   5 O5            -1.6532    -0.1919    -0.9348 O.2     
   6 O6             0.3505     0.1845     0.4667 O.2     
   7 N7            -0.7086    -2.0050     0.3854 N.am    
   8 C8            -0.0505    -2.5486     1.4911 C.ar    
   9 C9            -0.5608    -3.6767     2.1167 C.ar    
  10 C10            0.0988    -4.2148     3.2185 C.ar    
  11 C11            1.2682    -3.6169     3.6869 C.ar    
  12 C12            1.7695    -2.4946     3.0588 C.ar    
  13 C13            1.1187    -1.9629     1.9614 C.ar    
  14 C14           -1.7306    -7.1070     4.3589 C.2     
  15 N15           -1.5639    -6.0967     3.5408 N.2     
  16 C16           -0.4414    -5.4207     3.8927 C.2     
  17 C17            0.0997    -6.0429     4.9692 C.2     
  18 N18           -0.7147    -7.1090     5.2645 N.pl3   
  19 C19           -0.5252    -8.0700     6.3538 C.3     
  20 C20            0.1904    -9.2884     5.8300 C.ar    
  21 C21            1.5739    -9.2891     5.7242 C.ar    
  22 C22            2.2297   -10.4121     5.2416 C.ar    
  23 C23            1.5041   -11.5269     4.8676 C.ar    
  24 C24            0.1258   -11.5236     4.9737 C.ar    
  25 C25           -0.5299   -10.4074     5.4602 C.ar    
  26 O26            2.2853    -8.1912     6.0922 O.3     
  27 C27            3.7059    -8.2630     5.9561 C.3     
  28 N28           -2.7717    -8.0184     4.3131 N.pl3   
  29 H29           -2.9741     1.7524     2.5474 H       
  30 H30           -1.4103     2.0904     1.7673 H       
  31 H31           -2.8515     1.7741     0.7718 H       
  32 H32           -1.4928    -0.2346     2.6254 H       
  33 H33           -3.8639    -0.4663     0.7191 H       
  34 H34           -3.0716    -1.8435     1.5213 H       
  35 H35           -3.9106    -0.6102     2.4926 H       
  36 H36           -1.0268    -2.5857    -0.3235 H       
  37 H37           -1.4670    -4.1359     1.7504 H       
  38 H38            1.7817    -4.0319     4.5416 H       
  39 H39            2.6751    -2.0329     3.4235 H       
  40 H40            1.5175    -1.0872     1.4709 H       
  41 H41            0.9986    -5.7552     5.4941 H       
  42 H42            0.0692    -7.6111     7.1439 H       
  43 H43           -1.4963    -8.3627     6.7532 H       
  44 H44            3.3064   -10.4150     5.1579 H       
  45 H45            2.0142   -12.4016     4.4919 H       
  46 H46           -0.4396   -12.3957     4.6802 H       
  47 H47           -1.6064   -10.4090     5.5466 H       
  48 H48            4.0888    -9.0791     6.5689 H       
  49 H49            3.9623    -8.4416     4.9119 H       
  50 H50            4.1503    -7.3232     6.2837 H       
  51 H51           -3.4089    -7.9905     3.5822 H       
  52 H52           -2.8640    -8.6849     5.0118 H       
@<TRIPOS>BOND
   1    1    2 1
   2    1   29 1
   3    1   30 1
   4    1   31 1
   5    2    3 1
   6    2    4 1
   7    2   32 1
   8    3   33 1
   9    3   34 1
  10    3   35 1
  11    4    5 2
  12    4    6 2
  13    4    7 am
  14    7    8 1
  15    7   36 1
  16    8    9 ar
  17    8   13 ar
  18    9   10 ar
  19    9   37 1
  20   10   11 ar
  21   10   16 1
  22   11   12 ar
  23   11   38 1
  24   12   13 ar
  25   12   39 1
  26   13   40 1
  27   14   15 2
  28   14   18 1
  29   14   28 1
  30   15   16 1
  31   16   17 2
  32   17   18 1
  33   17   41 1
  34   18   19 1
  35   19   20 1
  36   19   42 1
  37   19   43 1
  38   20   21 ar
  39   20   25 ar
  40   21   22 ar
  41   21   26 1
  42   22   23 ar
  43   22   44 1
  44   23   24 ar
  45   23   45 1
  46   24   25 ar
  47   24   46 1
  48   25   47 1
  49   26   27 1
  50   27   48 1
  51   27   49 1
  52   27   50 1
  53   28   51 1
  54   28   52 1

#	End of record

