#	Name: ASD08150088
#	Creating user name:	WinNT
#	Creation time:	15. 06. 2019 21:15

#	Modifying user name:	WinNT
#	Modification time:	15. 06. 2019 21:15

#	Program:	/corina/corina34_cracker 3.40 0067  02.08.2006

@<TRIPOS>MOLECULE
ASD08150088
  61   64    0    0    0
SMALL
NO_CHARGES


@<TRIPOS>ATOM
   1 O1             0.1814     1.3051     0.1460 O.3     
   2 C2             0.3456    -0.0192     0.2392 C.2     
   3 N3             1.6285    -0.4058     0.2636 N.am    
   4 C4             2.4865     0.7858     0.1775 C.3     
   5 C5             1.4850     1.9541     0.0972 C.3     
   6 C6             3.3537     0.7338    -1.0819 C.3     
   7 C7             0.6618     3.8797    -1.2654 C.3     
   8 C8             1.6553     2.7172    -1.2179 C.3     
   9 O9            -0.5834    -0.8000     0.2968 O.2     
  10 C10            3.8095    -3.2303     0.5590 C.ar    
  11 N11            2.9799    -4.2615     0.5353 N.ar    
  12 C12            1.6648    -4.0764     0.4213 C.ar    
  13 C13            1.1697    -2.7763     0.3267 C.ar    
  14 C14            2.0756    -1.7195     0.3554 C.ar    
  15 N15            3.3738    -1.9825     0.4713 N.ar    
  16 C16           -0.9275    -7.3334     0.3484 C.ar    
  17 N17            0.3757    -7.5497     0.4623 N.ar    
  18 C18            1.2300    -6.5429     0.4889 C.ar    
  19 C19            0.7419    -5.2360     0.3951 C.ar    
  20 C20           -0.6385    -5.0507     0.2763 C.ar    
  21 N21           -1.4282    -6.1094     0.2570 N.ar    
  22 C22            2.7093    -6.7989     0.6192 C.3     
  23 F23            2.9493    -8.1766     0.5811 F       
  24 F24            3.3848    -6.1785    -0.4373 F       
  25 F25            3.1673    -6.2792     1.8346 F       
  26 N26            5.1683    -3.4618     0.6843 N.3     
  27 C27            5.4514    -4.9017     0.7732 C.3     
  28 C28            6.9655    -5.1148     0.8502 C.3     
  29 O29            7.4876    -4.3905     1.9674 O.3     
  30 C30            7.2304    -2.9847     1.9130 C.3     
  31 C31            5.7190    -2.7500     1.8467 C.3     
  32 N32           -1.7876    -8.4148     0.3185 N.pl3   
  33 C33            0.9243     4.7243    -2.5138 C.3     
  34 O34           -0.6709     3.3658    -1.3094 O.3     
  35 C35            0.8326     4.7479    -0.0171 C.3     
  36 H36            3.1083     0.8751     1.0683 H       
  37 H37            1.6103     2.6240     0.9479 H       
  38 H38            2.7132     0.6691    -1.9616 H       
  39 H39            3.9626     1.6359    -1.1413 H       
  40 H40            4.0029    -0.1407    -1.0402 H       
  41 H41            2.6718     3.1050    -1.2839 H       
  42 H42            1.4680     2.0447    -2.0550 H       
  43 H43            0.1094    -2.5936     0.2331 H       
  44 H44           -1.0533    -4.0564     0.2010 H       
  45 H45            4.9803    -5.3108     1.6669 H       
  46 H46            5.0574    -5.4053    -0.1096 H       
  47 H47            7.1777    -6.1768     0.9737 H       
  48 H48            7.4309    -4.7542    -0.0671 H       
  49 H49            7.6343    -2.5060     2.8051 H       
  50 H50            7.7036    -2.5621     1.0266 H       
  51 H51            5.5204    -1.6828     1.7476 H       
  52 H52            5.2522    -3.1246     2.7577 H       
  53 H53           -1.4354    -9.3165     0.3805 H       
  54 H54           -2.7434    -8.2721     0.2355 H       
  55 H55            0.8365     4.0977    -3.4014 H       
  56 H56            0.1946     5.5323    -2.5659 H       
  57 H57            1.9288     5.1445    -2.4636 H       
  58 H58           -0.9072     2.8195    -0.5474 H       
  59 H59            1.8491     5.1398     0.0165 H       
  60 H60            0.1248     5.5761    -0.0510 H       
  61 H61            0.6456     4.1462     0.8723 H       
@<TRIPOS>BOND
   1    1    2 1
   2    1    5 1
   3    2    3 am
   4    2    9 2
   5    3    4 1
   6    3   14 1
   7    4    5 1
   8    4    6 1
   9    4   36 1
  10    5    8 1
  11    5   37 1
  12    6   38 1
  13    6   39 1
  14    6   40 1
  15    7    8 1
  16    7   33 1
  17    7   34 1
  18    7   35 1
  19    8   41 1
  20    8   42 1
  21   10   11 ar
  22   10   15 ar
  23   10   26 1
  24   11   12 ar
  25   12   13 ar
  26   12   19 1
  27   13   14 ar
  28   13   43 1
  29   14   15 ar
  30   16   17 ar
  31   16   21 ar
  32   16   32 1
  33   17   18 ar
  34   18   19 ar
  35   18   22 1
  36   19   20 ar
  37   20   21 ar
  38   20   44 1
  39   22   23 1
  40   22   24 1
  41   22   25 1
  42   26   27 1
  43   26   31 1
  44   27   28 1
  45   27   45 1
  46   27   46 1
  47   28   29 1
  48   28   47 1
  49   28   48 1
  50   29   30 1
  51   30   31 1
  52   30   49 1
  53   30   50 1
  54   31   51 1
  55   31   52 1
  56   32   53 1
  57   32   54 1
  58   33   55 1
  59   33   56 1
  60   33   57 1
  61   34   58 1
  62   35   59 1
  63   35   60 1
  64   35   61 1

#	End of record

