#	Name: ASD01190007
#	Creating user name:	WinNT
#	Creation time:	15. 06. 2019 19:07

#	Modifying user name:	WinNT
#	Modification time:	15. 06. 2019 19:07

#	Program:	/corina/corina34_cracker 3.40 0067  02.08.2006

@<TRIPOS>MOLECULE
ASD01190007
  55   58    0    0    0
SMALL
NO_CHARGES


@<TRIPOS>ATOM
   1 C1             0.6078     1.2573     0.3933 C.ar    
   2 C2             0.4948    -0.1005     0.1303 C.ar    
   3 C3             1.6211    -0.8288    -0.2109 C.ar    
   4 C4             2.8629    -0.2131    -0.2924 C.ar    
   5 C5             2.9695     1.1388    -0.0398 C.ar    
   6 C6             1.8403     1.8685     0.3073 C.ar    
   7 C7             4.0471    -1.0737    -0.6464 C.3     
   8 C8             5.2455    -0.2227    -1.0652 C.3     
   9 C9             5.4439     0.8717    -0.0167 C.3     
  10 C10            4.2801     1.8633    -0.1428 C.3     
  11 C11            6.7193     1.6540    -0.2533 C.3     
  12 C12            6.8362     2.6681     0.9188 C.3     
  13 C13            5.7461     3.7058     0.7523 C.3     
  14 C14            4.3907     2.9845     0.8804 C.3     
  15 C15            8.0272     0.8680    -0.1111 C.3     
  16 C16            9.0679     1.9776     0.2021 C.3     
  17 C17            8.2757     3.1590     0.8161 C.3     
  18 O18            8.7847     3.4756     2.1133 O.3     
  19 O19           -0.7164    -0.7124     0.2079 O.3     
  20 C20           -0.9543    -1.4572     1.2994 C.2     
  21 C21           -2.2650    -2.1869     1.4428 C.3     
  22 O22           -0.1174    -1.5423     2.1668 O.2     
  23 C23           -2.2793    -2.9545     2.7662 C.3     
  24 C24           -3.5900    -3.6842     2.9096 C.2     
  25 O25           -3.8278    -4.4287     4.0008 O.3     
  26 O26           -4.4269    -3.5990     2.0422 O.2     
  27 C27            6.6499     1.9369     2.2498 C.3     
  28 H28           -0.2662     1.8332     0.6596 H       
  29 H29            1.5333    -1.8857    -0.4151 H       
  30 H30            1.9287     2.9252     0.5122 H       
  31 H31            4.3222    -1.6761     0.2193 H       
  32 H32            3.7745    -1.7354    -1.4685 H       
  33 H33            6.1380    -0.8460    -1.1196 H       
  34 H34            5.0528     0.2304    -2.0376 H       
  35 H35            5.4455     0.4305     0.9800 H       
  36 H36            4.3343     2.3198    -1.1311 H       
  37 H37            6.6743     2.1760    -1.2091 H       
  38 H38            5.8360     4.4644     1.5298 H       
  39 H39            5.8257     4.1711    -0.2302 H       
  40 H40            3.5857     3.7009     0.7165 H       
  41 H41            4.2997     2.5662     1.8828 H       
  42 H42            7.9621     0.1569     0.7125 H       
  43 H43            8.2745     0.3591    -1.0427 H       
  44 H44            9.8040     1.6093     0.9166 H       
  45 H45            9.5630     2.2959    -0.7154 H       
  46 H46            8.3318     4.0308     0.1643 H       
  47 H47            9.7105     3.7549     2.1151 H       
  48 H48           -3.0843    -1.4680     1.4308 H       
  49 H49           -2.3836    -2.8867     0.6156 H       
  50 H50           -1.4600    -3.6733     2.7782 H       
  51 H51           -2.1607    -2.2546     3.5934 H       
  52 H52           -4.6828    -4.8780     4.0479 H       
  53 H53            7.3561     1.1088     2.3114 H       
  54 H54            6.8289     2.6290     3.0727 H       
  55 H55            5.6322     1.5520     2.3136 H       
@<TRIPOS>BOND
   1    1    2 ar
   2    1    6 ar
   3    1   28 1
   4    2    3 ar
   5    2   19 1
   6    3    4 ar
   7    3   29 1
   8    4    5 ar
   9    4    7 1
  10    5    6 ar
  11    5   10 1
  12    6   30 1
  13    7    8 1
  14    7   31 1
  15    7   32 1
  16    8    9 1
  17    8   33 1
  18    8   34 1
  19    9   10 1
  20    9   11 1
  21    9   35 1
  22   10   14 1
  23   10   36 1
  24   11   12 1
  25   11   15 1
  26   11   37 1
  27   12   13 1
  28   12   27 1
  29   12   17 1
  30   13   14 1
  31   13   38 1
  32   13   39 1
  33   14   40 1
  34   14   41 1
  35   15   16 1
  36   15   42 1
  37   15   43 1
  38   16   17 1
  39   16   44 1
  40   16   45 1
  41   17   18 1
  42   17   46 1
  43   18   47 1
  44   19   20 1
  45   20   21 1
  46   20   22 2
  47   21   23 1
  48   21   48 1
  49   21   49 1
  50   23   24 1
  51   23   50 1
  52   23   51 1
  53   24   25 1
  54   24   26 2
  55   25   52 1
  56   27   53 1
  57   27   54 1
  58   27   55 1

#	End of record

