#	Name: ASD01883760
#	Creating user name:	WinNT
#	Creation time:	15. 06. 2019 19:47

#	Modifying user name:	WinNT
#	Modification time:	15. 06. 2019 19:47

#	Program:	/corina/corina34_cracker 3.40 0067  02.08.2006

@<TRIPOS>MOLECULE
ASD01883760
  42   45    0    0    0
SMALL
NO_CHARGES


@<TRIPOS>ATOM
   1 C1             0.0723     1.4888     0.2369 C.2     
   2 C2             0.0630     0.0870     0.1895 C.2     
   3 C3            -1.1748    -0.5895     0.2050 C.2     
   4 C4            -2.3354     0.0898     0.2638 C.2     
   5 N5            -2.3723     1.4532     0.3108 N.pl3   
   6 C6            -1.2133     2.1865     0.3068 C.2     
   7 C7            -3.4082     2.3490     0.3726 C.2     
   8 C8            -2.8654     3.5845     0.3976 C.2     
   9 N9            -1.5340     3.4667     0.3581 N.2     
  10 C10           -4.8776     2.0165     0.4063 C.3     
  11 C11            1.3307    -0.6698     0.1238 C.ar    
  12 C12            1.7046    -1.5038     1.1789 C.ar    
  13 C13            2.8924    -2.2116     1.1169 C.ar    
  14 C14            3.7141    -2.0963    -0.0011 C.ar    
  15 C15            3.3386    -1.2616    -1.0526 C.ar    
  16 C16            2.1569    -0.5581    -0.9967 C.ar    
  17 C17           -5.4464     2.0748    -1.0128 C.3     
  18 F18           -4.7775     1.1500    -1.8217 F       
  19 F19           -6.8106     1.7662    -0.9815 F       
  20 F20           -5.2713     3.3617    -1.5329 F       
  21 C21            1.3051     2.2173     0.2232 C.1     
  22 N22            2.2831     2.7953     0.2124 N.1     
  23 O23            3.2334    -3.0072     2.1681 O.3     
  24 C24            4.2785    -3.9587     1.9414 C.3     
  25 C25            5.4142    -3.2435     1.1982 C.3     
  26 N26            4.9134    -2.8016    -0.1083 N.3     
  27 C27            5.9266    -2.0119    -0.8208 C.3     
  28 H28           -1.1915    -1.6688     0.1689 H       
  29 H29           -3.2648    -0.4603     0.2737 H       
  30 H30           -3.4147     4.5132     0.4453 H       
  31 H31           -5.0141     1.0139     0.8115 H       
  32 H32           -5.3988     2.7371     1.0366 H       
  33 H33            1.0662    -1.5965     2.0451 H       
  34 H34            3.9774    -1.1692    -1.9185 H       
  35 H35            1.8726     0.0865    -1.8153 H       
  36 H36            4.6440    -4.3392     2.8952 H       
  37 H37            3.9021    -4.7824     1.3349 H       
  38 H38            5.7422    -2.3792     1.7758 H       
  39 H39            6.2486    -3.9304     1.0570 H       
  40 H40            6.8612    -2.5714    -0.8610 H       
  41 H41            5.5815    -1.8078    -1.8344 H       
  42 H42            6.0889    -1.0706    -0.2958 H       
@<TRIPOS>BOND
   1    1    2 2
   2    1   21 1
   3    1    6 1
   4    2    3 1
   5    2   11 1
   6    3    4 2
   7    3   28 1
   8    4    5 1
   9    4   29 1
  10    5    6 1
  11    5    7 1
  12    6    9 2
  13    7    8 2
  14    7   10 1
  15    8    9 1
  16    8   30 1
  17   10   17 1
  18   10   31 1
  19   10   32 1
  20   11   12 ar
  21   11   16 ar
  22   12   13 ar
  23   12   33 1
  24   13   14 ar
  25   13   23 1
  26   14   15 ar
  27   14   26 1
  28   15   16 ar
  29   15   34 1
  30   16   35 1
  31   17   18 1
  32   17   19 1
  33   17   20 1
  34   21   22 3
  35   23   24 1
  36   24   25 1
  37   24   36 1
  38   24   37 1
  39   25   26 1
  40   25   38 1
  41   25   39 1
  42   26   27 1
  43   27   40 1
  44   27   41 1
  45   27   42 1

#	End of record

