#	Name: ASD01410816
#	Creating user name:	WinNT
#	Creation time:	15. 06. 2019 19:18

#	Modifying user name:	WinNT
#	Modification time:	15. 06. 2019 19:18

#	Program:	/corina/corina34_cracker 3.40 0067  02.08.2006

@<TRIPOS>MOLECULE
ASD01410816
  63   63    0    0    0
SMALL
NO_CHARGES


@<TRIPOS>ATOM
   1 C1             0.0001     1.5186    -0.0869 C.3     
   2 C2             0.0140    -0.0209     0.0193 C.3     
   3 N3            -0.1223    -0.3615     1.4430 N.am    
   4 C4            -0.1938     0.8873     2.2231 C.3     
   5 C5            -0.7112     1.9508     1.2226 C.3     
   6 C6             1.3362    -0.5679    -0.5224 C.3     
   7 C7             1.4234    -0.2953    -2.0253 C.3     
   8 C8            -1.1582     0.7342     3.3710 C.2     
   9 O9            -1.9772    -0.1539     3.3575 O.2     
  10 O10           -1.1072     1.5845     4.4084 O.3     
  11 C11           -2.0664     1.3771     5.4785 C.3     
  12 O12           -0.1880    -1.7928     3.2845 O.3     
  13 C13           -0.2444    -3.1634     3.7604 C.3     
  14 C14            0.9781    -3.9304     3.2524 C.3     
  15 C15           -0.2524    -3.1722     5.2903 C.3     
  16 C16           -1.5184    -3.8320     3.2399 C.3     
  17 C17           -0.1740    -1.6089     1.9508 C.2     
  18 O18           -0.2081    -2.5676     1.2049 O.2     
  19 Si19           1.4773     3.4225    -0.9764 Si      
  20 C20            3.2550     3.9793    -0.9548 C.3     
  21 C21            0.4060     4.7351    -0.2017 C.3     
  22 C22            0.9367     3.1389    -2.7366 C.3     
  23 C23            3.6989     4.2122     0.4908 C.3     
  24 C24            4.1348     2.9013    -1.5910 C.3     
  25 C25            3.3912     5.2815    -1.7462 C.3     
  26 O26            1.3320     2.0343    -0.1327 O.3     
  27 H27           -0.5666     1.8398    -0.9608 H       
  28 H28           -0.8208    -0.4388    -0.5434 H       
  29 H29            0.7948     1.1619     2.5911 H       
  30 H30           -0.4026     2.9523     1.5226 H       
  31 H31           -1.7944     1.8929     1.1162 H       
  32 H32            2.1672    -0.0776    -0.0153 H       
  33 H33            1.3851    -1.6422    -0.3445 H       
  34 H34            2.4014    -0.6044    -2.3945 H       
  35 H35            0.6457    -0.8574    -2.5423 H       
  36 H36            1.2854     0.7700    -2.2100 H       
  37 H37           -1.9167     2.1306     6.2517 H       
  38 H38           -3.0779     1.4605     5.0809 H       
  39 H39           -1.9248     0.3845     5.9061 H       
  40 H40            1.8857    -3.4542     3.6232 H       
  41 H41            0.9357    -4.9594     3.6096 H       
  42 H42            0.9838    -3.9242     2.1624 H       
  43 H43           -1.1234    -2.6257     5.6522 H       
  44 H44           -0.2948    -4.2011     5.6476 H       
  45 H45            0.6552    -2.6959     5.6611 H       
  46 H46           -1.5127    -3.8257     2.1499 H       
  47 H47           -1.5608    -4.8609     3.5971 H       
  48 H48           -2.3894    -3.2855     3.6018 H       
  49 H49            0.5030     5.6628    -0.7655 H       
  50 H50           -0.6342     4.4093    -0.2143 H       
  51 H51            0.7222     4.9010     0.8282 H       
  52 H52            1.5635     2.3709    -3.1899 H       
  53 H53           -0.1034     2.8131    -2.7492 H       
  54 H54            1.0338     4.0666    -3.3004 H       
  55 H55            3.6018     3.2844     1.0546 H       
  56 H56            4.7390     4.5379     0.5034 H       
  57 H57            3.0721     4.9801     0.9441 H       
  58 H58            3.8186     2.7354    -2.6209 H       
  59 H59            5.1749     3.2271    -1.5784 H       
  60 H60            4.0377     1.9736    -1.0272 H       
  61 H61            2.7644     6.0495    -1.2929 H       
  62 H62            4.4313     5.6073    -1.7336 H       
  63 H63            3.0750     5.1156    -2.7761 H       
@<TRIPOS>BOND
   1    1    2 1
   2    1   26 1
   3    1    5 1
   4    1   27 1
   5    2    3 1
   6    2    6 1
   7    2   28 1
   8    3    4 1
   9    3   17 am
  10    4    5 1
  11    4    8 1
  12    4   29 1
  13    5   30 1
  14    5   31 1
  15    6    7 1
  16    6   32 1
  17    6   33 1
  18    7   34 1
  19    7   35 1
  20    7   36 1
  21    8    9 2
  22    8   10 1
  23   10   11 1
  24   11   37 1
  25   11   38 1
  26   11   39 1
  27   12   13 1
  28   12   17 1
  29   13   14 1
  30   13   15 1
  31   13   16 1
  32   14   40 1
  33   14   41 1
  34   14   42 1
  35   15   43 1
  36   15   44 1
  37   15   45 1
  38   16   46 1
  39   16   47 1
  40   16   48 1
  41   17   18 2
  42   19   20 1
  43   19   21 1
  44   19   22 1
  45   19   26 1
  46   20   23 1
  47   20   24 1
  48   20   25 1
  49   21   49 1
  50   21   50 1
  51   21   51 1
  52   22   52 1
  53   22   53 1
  54   22   54 1
  55   23   55 1
  56   23   56 1
  57   23   57 1
  58   24   58 1
  59   24   59 1
  60   24   60 1
  61   25   61 1
  62   25   62 1
  63   25   63 1

#	End of record

