#	Name: ASD01901248
#	Creating user name:	WinNT
#	Creation time:	15. 06. 2019 19:53

#	Modifying user name:	WinNT
#	Modification time:	15. 06. 2019 19:53

#	Program:	/corina/corina34_cracker 3.40 0067  02.08.2006

@<TRIPOS>MOLECULE
ASD01901248
  43   46    0    0    0
SMALL
NO_CHARGES


@<TRIPOS>ATOM
   1 C1             1.9294     1.1138     0.0883 C.ar    
   2 C2             2.1468    -0.2476     0.1254 C.ar    
   3 C3             3.4304    -0.7430     0.2739 C.ar    
   4 C4             4.5045     0.1221     0.3867 C.ar    
   5 C5             4.3026     1.4860     0.3513 C.ar    
   6 C6             3.0092     1.9936     0.2011 C.ar    
   7 C7             2.7916     3.4085     0.1630 C.1     
   8 C8             2.6131     4.5684     0.1318 C.1     
   9 C9             2.3954     5.9832     0.0937 C.ar    
  10 C10            0.8942     7.8531    -0.0867 C.ar    
  11 C11            1.1003     6.4892    -0.0508 C.ar    
  12 C12            3.4769     6.8617     0.2067 C.ar    
  13 C13            3.2635     8.2245     0.1701 C.ar    
  14 C14            1.9735     8.7246     0.0213 C.ar    
  15 F15           -0.3571     8.3429    -0.2263 F       
  16 N16            1.7605    10.1093    -0.0164 N.am    
  17 C17            1.5331    10.7789     1.1293 C.2     
  18 C18            1.3449    12.8362    -0.1261 C.2     
  19 N19            1.5931    12.0790    -1.2790 N.am    
  20 C20            1.7911    10.7540    -1.1951 C.2     
  21 C21            1.6298    12.7378    -2.5870 C.3     
  22 O22            2.0039    10.1210    -2.2114 O.2     
  23 O23            1.5131    10.1845     2.1923 O.2     
  24 F24            4.3081     9.0742     0.2793 F       
  25 C25            0.9172    14.6279     1.2552 C.2     
  26 C26            1.1159    14.2002     0.0105 C.2     
  27 C27            1.3176    12.1797     1.0917 C.2     
  28 S28            0.9992    13.3425     2.3713 S.3     
  29 C29            1.0963    15.1337    -1.1724 C.3     
  30 H30            0.9276     1.4989    -0.0322 H       
  31 H31            1.3132    -0.9288     0.0386 H       
  32 H32            3.5946    -1.8100     0.3023 H       
  33 H33            5.5034    -0.2716     0.5031 H       
  34 H34            5.1418     2.1600     0.4394 H       
  35 H35            0.2621     5.8133    -0.1347 H       
  36 H36            4.4783     6.4743     0.3229 H       
  37 H37            2.3483    13.5571    -2.5611 H       
  38 H38            1.9278    12.0171    -3.3485 H       
  39 H39            0.6407    13.1293    -2.8245 H       
  40 H40            0.7276    15.6568     1.5232 H       
  41 H41            2.1161    15.4298    -1.4185 H       
  42 H42            0.6487    14.6273    -2.0275 H       
  43 H43            0.5101    16.0192    -0.9267 H       
@<TRIPOS>BOND
   1    1    2 ar
   2    1    6 ar
   3    1   30 1
   4    2    3 ar
   5    2   31 1
   6    3    4 ar
   7    3   32 1
   8    4    5 ar
   9    4   33 1
  10    5    6 ar
  11    5   34 1
  12    6    7 1
  13    7    8 3
  14    8    9 1
  15    9   12 ar
  16    9   11 ar
  17   10   11 ar
  18   10   14 ar
  19   10   15 1
  20   11   35 1
  21   12   13 ar
  22   12   36 1
  23   13   14 ar
  24   13   24 1
  25   14   16 1
  26   16   17 am
  27   16   20 am
  28   17   27 1
  29   17   23 2
  30   18   19 1
  31   18   27 2
  32   18   26 1
  33   19   20 am
  34   19   21 1
  35   20   22 2
  36   21   37 1
  37   21   38 1
  38   21   39 1
  39   25   26 2
  40   25   28 1
  41   25   40 1
  42   26   29 1
  43   27   28 1
  44   29   41 1
  45   29   42 1
  46   29   43 1

#	End of record

