#	Name: ASD03570030
#	Creating user name:	WinNT
#	Creation time:	15. 06. 2019 20:43

#	Modifying user name:	WinNT
#	Modification time:	15. 06. 2019 20:43

#	Program:	/corina/corina34_cracker 3.40 0067  02.08.2006

@<TRIPOS>MOLECULE
ASD03570030
  38   38    0    0    0
SMALL
NO_CHARGES


@<TRIPOS>ATOM
   1 C1             0.0703     1.5570    -0.0963 C.ar    
   2 C2             0.0411     0.1746    -0.0455 C.ar    
   3 C3             1.2221    -0.5431    -0.0373 C.ar    
   4 C4             2.4393     0.1247    -0.0801 C.ar    
   5 C5             2.4655     1.5126    -0.1310 C.ar    
   6 C6             1.2813     2.2249    -0.1390 C.ar    
   7 Br7           -1.6165    -0.7336     0.0133 Br      
   8 Br8            1.3159     4.1143    -0.2083 Br      
   9 N9             3.6345    -0.5979    -0.0714 N.pl3   
  10 N10            4.8615     0.0771    -0.1146 N.pl3   
  11 C11            6.0590    -0.6469    -0.1059 C.2     
  12 C12            6.0323    -1.9815    -0.0565 C.2     
  13 C13            7.3133    -2.7658    -0.1782 C.3     
  14 C14            7.4922    -3.6457     1.0606 C.3     
  15 C15            8.7733    -4.4301     0.9389 C.2     
  16 O16            9.4715    -4.2988    -0.0384 O.2     
  17 O17            9.1386    -5.2745     1.9162 O.3     
  18 C18            7.3504     0.0635    -0.1514 C.2     
  19 O19            7.8576     0.4683     0.8759 O.2     
  20 O20            7.9682     0.2637    -1.3323 O.3     
  21 C21            9.7818     1.1013    -2.7249 C.3     
  22 C22            9.2362     0.9703    -1.3015 C.3     
  23 H23           -0.8539     2.1156    -0.1071 H       
  24 H24            1.1986    -1.6221     0.0027 H       
  25 H25            3.4105     2.0345    -0.1640 H       
  26 H26            3.6151    -1.5670    -0.0355 H       
  27 H27            4.8809     1.0462    -0.1505 H       
  28 H28            5.0926    -2.4984     0.0707 H       
  29 H29            7.2712    -3.3947    -1.0675 H       
  30 H30            8.1545    -2.0774    -0.2595 H       
  31 H31            7.5344    -3.0169     1.9499 H       
  32 H32            6.6511    -4.3341     1.1419 H       
  33 H33            9.9684    -5.7556     1.7933 H       
  34 H34            9.9293     0.1087    -3.1502 H       
  35 H35            9.0711     1.6569    -3.3367 H       
  36 H36           10.7338     1.6318    -2.7017 H       
  37 H37            9.0887     1.9630    -0.8761 H       
  38 H38            9.9470     0.4148    -0.6896 H       
@<TRIPOS>BOND
   1    1    2 ar
   2    1    6 ar
   3    1   23 1
   4    2    3 ar
   5    2    7 1
   6    3    4 ar
   7    3   24 1
   8    4    5 ar
   9    4    9 1
  10    5    6 ar
  11    5   25 1
  12    6    8 1
  13    9   10 1
  14    9   26 1
  15   10   11 1
  16   10   27 1
  17   11   12 2
  18   11   18 1
  19   12   13 1
  20   12   28 1
  21   13   14 1
  22   13   29 1
  23   13   30 1
  24   14   15 1
  25   14   31 1
  26   14   32 1
  27   15   16 2
  28   15   17 1
  29   17   33 1
  30   18   19 2
  31   18   20 1
  32   20   22 1
  33   21   22 1
  34   21   34 1
  35   21   35 1
  36   21   36 1
  37   22   37 1
  38   22   38 1

#	End of record

