#	Name: ASD00840113
#	Creating user name:	WinNT
#	Creation time:	15. 06. 2019 18:37

#	Modifying user name:	WinNT
#	Modification time:	15. 06. 2019 18:37

#	Program:	/corina/corina34_cracker 3.40 0067  02.08.2006

@<TRIPOS>MOLECULE
ASD00840113
  88   93    0    0    0
SMALL
NO_CHARGES


@<TRIPOS>ATOM
   1 N1            -0.0802     1.3790     0.0131 N.3     
   2 C2            -0.1659    -0.0799     0.1571 C.3     
   3 C3             0.5927    -0.5152     1.4129 C.3     
   4 C4             2.0561    -0.0803     1.2958 C.3     
   5 C5             2.1152     1.4370     1.0982 C.3     
   6 C6             1.3125     1.8158    -0.1485 C.3     
   7 N7            -2.2638     5.3657    -2.7945 N.am    
   8 C8            -1.7474     4.1259    -2.8196 C.2     
   9 C9            -2.6357     3.2547    -1.9572 C.3     
  10 C10           -3.7063     4.2004    -1.4620 C.ar    
  11 C11           -4.7967     4.0268    -0.6472 C.ar    
  12 C12           -5.6290     5.1135    -0.3576 C.ar    
  13 C13           -5.3379     6.3693    -0.9048 C.ar    
  14 C14           -4.2401     6.5306    -1.7221 C.ar    
  15 C15           -3.4107     5.4460    -2.0096 C.ar    
  16 O16           -0.7557     3.7709    -3.4208 O.2     
  17 S17           -1.6064     6.6545    -3.6004 S.o2    
  18 O18           -2.0534     7.8213    -2.9236 O.2     
  19 O19           -0.2328     6.3473    -3.7956 O.2     
  20 C20           -2.3392     6.6968    -5.2022 C.ar    
  21 C21           -3.4989     7.4200    -5.4117 C.ar    
  22 C22           -4.0754     7.4548    -6.6666 C.ar    
  23 C23           -3.4898     6.7634    -7.7171 C.ar    
  24 C24           -2.3262     6.0386    -7.5044 C.ar    
  25 C25           -1.7505     6.0115    -6.2488 C.ar    
  26 O26           -4.0552     6.7957    -8.9525 O.3     
  27 C27           -3.3976     6.0605    -9.9864 C.3     
  28 F28           -6.1354     7.4250    -0.6313 F       
  29 C29           -3.2467     2.1479    -2.7773 C.ar    
  30 C30           -4.0025     1.1618    -2.1594 C.ar    
  31 C31           -4.5635     0.1444    -2.9171 C.ar    
  32 C32           -4.3687     0.1151    -4.2846 C.ar    
  33 C33           -3.6149     1.0984    -4.8978 C.ar    
  34 C34           -3.0597     2.1173    -4.1455 C.ar    
  35 O35           -4.1923     1.1926    -0.8141 O.3     
  36 C36           -4.9812     0.1452    -0.2461 C.3     
  37 C37           -5.0831     0.3468     1.2672 C.3     
  38 C38           -6.7697     4.9429     0.4912 C.1     
  39 N39           -7.6745     4.8076     1.1645 N.1     
  40 C40           -1.8555     2.6873    -0.7995 C.2     
  41 O41           -2.1293     3.0158     0.3354 O.2     
  42 N42           -0.8535     1.8146    -1.0253 N.am    
  43 N43            2.7761    -0.4438     2.5235 N.3     
  44 C44            4.2104    -0.1483     2.4001 C.3     
  45 C45            4.9097    -0.4660     3.7239 C.3     
  46 N46            4.6934    -1.8796     4.0623 N.3     
  47 C47            3.2591    -2.1751     4.1858 C.3     
  48 C48            2.5598    -1.8574     2.8620 C.3     
  49 C49            5.4134    -2.2431     5.2901 C.3     
  50 H50           -1.2114    -0.3755     0.2436 H       
  51 H51            0.2753    -0.5577    -0.7176 H       
  52 H52            0.1434    -0.0486     2.2895 H       
  53 H53            0.5421    -1.5996     1.5110 H       
  54 H54            2.5166    -0.5770     0.4418 H       
  55 H55            1.6898     1.9343     1.9699 H       
  56 H56            3.1523     1.7474     0.9714 H       
  57 H57            1.7467     1.3291    -1.0218 H       
  58 H58            1.3406     2.8969    -0.2840 H       
  59 H59           -5.0121     3.0538    -0.2308 H       
  60 H60           -4.0205     7.5012    -2.1417 H       
  61 H61           -3.9547     7.9577    -4.5934 H       
  62 H62           -4.9815     8.0195    -6.8296 H       
  63 H63           -1.8684     5.4995    -8.3206 H       
  64 H64           -0.8420     5.4513    -6.0838 H       
  65 H65           -3.9513     6.1704   -10.9189 H       
  66 H66           -2.3857     6.4437   -10.1174 H       
  67 H67           -3.3543     5.0066    -9.7116 H       
  68 H68           -5.1518    -0.6245    -2.4384 H       
  69 H69           -4.8053    -0.6769    -4.8750 H       
  70 H70           -3.4632     1.0734    -5.9668 H       
  71 H71           -2.4752     2.8870    -4.6275 H       
  72 H72           -5.9795     0.1644    -0.6832 H       
  73 H73           -4.5120    -0.8165    -0.4537 H       
  74 H74           -4.0848     0.3276     1.7043 H       
  75 H75           -5.5523     1.3085     1.4748 H       
  76 H76           -5.6849    -0.4521     1.7004 H       
  77 H77           -0.6815     1.4960    -1.9251 H       
  78 H78            4.6404    -0.7587     1.6060 H       
  79 H79            4.3451     0.9067     2.1617 H       
  80 H80            5.9784    -0.2750     3.6256 H       
  81 H81            4.4985     0.1638     4.5127 H       
  82 H82            3.1244    -3.2301     4.4242 H       
  83 H83            2.8292    -1.5647     4.9799 H       
  84 H84            1.4912    -2.0484     2.9603 H       
  85 H85            2.9710    -2.4872     2.0731 H       
  86 H86            5.0571    -1.6276     6.1160 H       
  87 H87            5.2361    -3.2943     5.5175 H       
  88 H88            6.4812    -2.0773     5.1477 H       
@<TRIPOS>BOND
   1    1    2 1
   2    1    6 1
   3    1   42 1
   4    2    3 1
   5    2   50 1
   6    2   51 1
   7    3    4 1
   8    3   52 1
   9    3   53 1
  10    4    5 1
  11    4   43 1
  12    4   54 1
  13    5    6 1
  14    5   55 1
  15    5   56 1
  16    6   57 1
  17    6   58 1
  18    7    8 am
  19    7   15 1
  20    7   17 am
  21    8    9 1
  22    8   16 2
  23    9   10 1
  24    9   29 1
  25    9   40 1
  26   10   11 ar
  27   10   15 ar
  28   11   12 ar
  29   11   59 1
  30   12   13 ar
  31   12   38 1
  32   13   14 ar
  33   13   28 1
  34   14   15 ar
  35   14   60 1
  36   17   18 2
  37   17   19 2
  38   17   20 1
  39   20   21 ar
  40   20   25 ar
  41   21   22 ar
  42   21   61 1
  43   22   23 ar
  44   22   62 1
  45   23   24 ar
  46   23   26 1
  47   24   25 ar
  48   24   63 1
  49   25   64 1
  50   26   27 1
  51   27   65 1
  52   27   66 1
  53   27   67 1
  54   29   30 ar
  55   29   34 ar
  56   30   31 ar
  57   30   35 1
  58   31   32 ar
  59   31   68 1
  60   32   33 ar
  61   32   69 1
  62   33   34 ar
  63   33   70 1
  64   34   71 1
  65   35   36 1
  66   36   37 1
  67   36   72 1
  68   36   73 1
  69   37   74 1
  70   37   75 1
  71   37   76 1
  72   38   39 3
  73   40   41 2
  74   40   42 am
  75   42   77 1
  76   43   44 1
  77   43   48 1
  78   44   45 1
  79   44   78 1
  80   44   79 1
  81   45   46 1
  82   45   80 1
  83   45   81 1
  84   46   47 1
  85   46   49 1
  86   47   48 1
  87   47   82 1
  88   47   83 1
  89   48   84 1
  90   48   85 1
  91   49   86 1
  92   49   87 1
  93   49   88 1

#	End of record

