#	Name: ASD05430094
#	Creating user name:	WinNT
#	Creation time:	15. 06. 2019 20:59

#	Modifying user name:	WinNT
#	Modification time:	15. 06. 2019 20:59

#	Program:	/corina/corina34_cracker 3.40 0067  02.08.2006

@<TRIPOS>MOLECULE
ASD05430094
  72   78    0    0    0
SMALL
NO_CHARGES


@<TRIPOS>ATOM
   1 F1             7.6855     6.9682    -3.8878 F       
   2 C2             0.2127     1.1331    -1.0780 C.ar    
   3 C3             0.0233    -0.0222    -0.3027 C.ar    
   4 C4             1.0259    -0.4577     0.5474 C.ar    
   5 C5             2.2181     0.2345     0.6433 C.ar    
   6 C6             2.4283     1.3855    -0.1185 C.ar    
   7 C7             1.4200     1.8381    -0.9845 C.ar    
   8 C8             4.9050    -0.0576    -0.0833 C.3     
   9 C9             4.8617     1.4450     0.0738 C.2     
  10 C10            3.6974     2.1199    -0.0139 C.2     
  11 C11            6.3208    -0.5108    -0.4442 C.3     
  12 C12            7.1167     0.5283    -1.2399 C.3     
  13 N13            7.2314     1.7519    -0.4450 N.pl3   
  14 C14            6.1283     2.1482     0.3256 C.2     
  15 C15            8.2357     3.7548    -1.3744 C.ar    
  16 C16            9.2501     4.6779    -1.5475 C.ar    
  17 C17            9.0666     5.7570    -2.3912 C.ar    
  18 C18            7.8662     5.9134    -3.0632 C.ar    
  19 C19            6.8509     4.9883    -2.8890 C.ar    
  20 C20            7.0367     3.9099    -2.0449 C.ar    
  21 N21           -1.1793    -0.7335    -0.3889 N.pl3   
  22 C22           -1.3153    -2.0837    -0.5846 C.2     
  23 C23           -2.6366    -2.3439    -0.6030 C.2     
  24 N24           -3.2936    -1.1884    -0.4240 N.2     
  25 C25           -2.4318    -0.2173    -0.2887 C.2     
  26 C26            7.0960    -1.0584     0.7580 C.3     
  27 S27            7.9743    -2.2091    -0.3354 S.o     
  28 C28            6.3529    -1.9007    -1.0881 C.3     
  29 O29            8.9741    -1.5050    -1.0591 O.2     
  30 C30           -3.2677    -3.6992    -0.7924 C.3     
  31 N31            1.3088     2.9040    -1.8499 N.pl3   
  32 C32            0.0806     2.8280    -2.4308 C.2     
  33 N33           -0.5601     1.7884    -1.9819 N.2     
  34 C34            8.4393     2.5752    -0.4590 C.3     
  35 C35            8.7167     3.0716     0.9645 C.3     
  36 N36            7.4875     3.6261     1.5367 N.pl3   
  37 N37            6.2412     3.0658     1.2329 N.2     
  38 C38            9.6232     1.7399    -0.9505 C.3     
  39 C39            2.3247     3.9300    -2.0985 C.3     
  40 C40           -4.2150    -3.9882     0.3738 C.3     
  41 H41            0.8744    -1.3467     1.1415 H       
  42 H42            2.9909    -0.1164     1.3112 H       
  43 H43            4.6031    -0.5274     0.8528 H       
  44 H44            4.2172    -0.3580    -0.8738 H       
  45 H45            3.6974     3.1999    -0.0072 H       
  46 H46            8.1117     0.1388    -1.4554 H       
  47 H47            6.5991     0.7472    -2.1738 H       
  48 H48           10.1863     4.5559    -1.0230 H       
  49 H49            9.8591     6.4783    -2.5260 H       
  50 H50            5.9141     5.1093    -3.4127 H       
  51 H51            6.2449     3.1882    -1.9089 H       
  52 H52           -0.5164    -2.8008    -0.7018 H       
  53 H53           -2.6741     0.8232    -0.1307 H       
  54 H54            7.7519    -0.3191     1.2176 H       
  55 H55            6.4588    -1.5608     1.4857 H       
  56 H56            5.5735    -2.5644    -0.7137 H       
  57 H57            6.3854    -1.8677    -2.1771 H       
  58 H58           -3.8280    -3.7116    -1.7273 H       
  59 H59           -2.4890    -4.4612    -0.8254 H       
  60 H60           -0.3043     3.5259    -3.1596 H       
  61 H61            9.0603     2.2395     1.5790 H       
  62 H62            9.4852     3.8441     0.9366 H       
  63 H63            7.5377     4.3897     2.1329 H       
  64 H64            9.4193     1.3784    -1.9584 H       
  65 H65           10.5228     2.3553    -0.9603 H       
  66 H66            9.7710     0.8910    -0.2829 H       
  67 H67            3.0243     3.5729    -2.8543 H       
  68 H68            1.8419     4.8412    -2.4518 H       
  69 H69            2.8636     4.1391    -1.1744 H       
  70 H70           -4.6715    -4.9684     0.2368 H       
  71 H71           -3.6547    -3.9758     1.3087 H       
  72 H72           -4.9937    -3.2262     0.4068 H       
@<TRIPOS>BOND
   1    1   18 1
   2    2    3 ar
   3    2    7 ar
   4    2   33 1
   5    3    4 ar
   6    3   21 1
   7    4    5 ar
   8    4   41 1
   9    5    6 ar
  10    5   42 1
  11    6    7 ar
  12    6   10 1
  13    7   31 1
  14    8    9 1
  15    8   11 1
  16    8   43 1
  17    8   44 1
  18    9   10 2
  19    9   14 1
  20   10   45 1
  21   11   12 1
  22   11   26 1
  23   11   28 1
  24   12   13 1
  25   12   46 1
  26   12   47 1
  27   13   14 1
  28   13   34 1
  29   14   37 2
  30   15   16 ar
  31   15   20 ar
  32   15   34 1
  33   16   17 ar
  34   16   48 1
  35   17   18 ar
  36   17   49 1
  37   18   19 ar
  38   19   20 ar
  39   19   50 1
  40   20   51 1
  41   21   22 1
  42   21   25 1
  43   22   23 2
  44   22   52 1
  45   23   24 1
  46   23   30 1
  47   24   25 2
  48   25   53 1
  49   26   27 1
  50   26   54 1
  51   26   55 1
  52   27   28 1
  53   27   29 2
  54   28   56 1
  55   28   57 1
  56   30   40 1
  57   30   58 1
  58   30   59 1
  59   31   32 1
  60   31   39 1
  61   32   33 2
  62   32   60 1
  63   34   35 1
  64   34   38 1
  65   35   36 1
  66   35   61 1
  67   35   62 1
  68   36   37 1
  69   36   63 1
  70   38   64 1
  71   38   65 1
  72   38   66 1
  73   39   67 1
  74   39   68 1
  75   39   69 1
  76   40   70 1
  77   40   71 1
  78   40   72 1

#	End of record

