#	Name: ASD01841017
#	Creating user name:	WinNT
#	Creation time:	15. 06. 2019 19:38

#	Modifying user name:	WinNT
#	Modification time:	15. 06. 2019 19:38

#	Program:	/corina/corina34_cracker 3.40 0067  02.08.2006

@<TRIPOS>MOLECULE
ASD01841017
  76   79    0    0    0
SMALL
NO_CHARGES


@<TRIPOS>ATOM
   1 N1            -0.0178     1.4648     0.0101 N.4     
   2 C2             0.0021    -0.0041     0.0020 C.3     
   3 C3            -1.4333    -0.5336     0.0129 C.3     
   4 C4            -1.4126    -2.0635     0.0045 C.3     
   5 C5            -2.8479    -2.5931     0.0153 C.3     
   6 C6            -3.5768    -2.0938    -1.2056 C.ar    
   7 C7            -2.8275    -4.0999     0.0070 C.ar    
   8 O8            -3.5168    -2.1322     1.1910 O.3     
   9 C9            -4.9420    -1.8822    -1.1572 C.ar    
  10 C10           -5.6106    -1.4243    -2.2771 C.ar    
  11 C11           -4.9139    -1.1777    -3.4453 C.ar    
  12 C12           -3.5486    -1.3884    -3.4934 C.ar    
  13 C13           -2.8793    -1.8422    -2.3722 C.ar    
  14 C14           -3.8490    -4.8083     0.6116 C.ar    
  15 C15           -3.8303    -6.1905     0.6040 C.ar    
  16 C16           -2.7902    -6.8643    -0.0085 C.ar    
  17 C17           -1.7691    -6.1559    -0.6138 C.ar    
  18 C18           -1.7901    -4.7737    -0.6100 C.ar    
  19 C19            1.3597     1.9714    -0.0003 C.3     
  20 C20            1.3462     3.4988     0.0898 C.3     
  21 C21            0.5820     4.0687    -1.1087 C.3     
  22 C22           -0.8299     3.4760    -1.1300 C.3     
  23 C23           -0.7357     1.9494    -1.1749 C.3     
  24 C24            0.4960     5.5912    -0.9837 C.3     
  25 C25            1.9080     6.1830    -0.9525 C.3     
  26 C26            1.8144     7.7097    -0.9076 C.3     
  27 N27            1.1050     8.1952    -2.0974 N.4     
  28 C28           -0.2729     7.6894    -2.0966 C.3     
  29 C29           -0.2596     6.1619    -2.1873 C.3     
  30 C30            1.0858     9.6640    -2.0889 C.3     
  31 C31           -0.7025     1.9371     1.2209 C.3     
  32 C32            1.7972     7.7244    -3.3045 C.3     
  33 H33            0.5123    -0.3556    -0.8948 H       
  34 H34            0.5293    -0.3651     0.8851 H       
  35 H35           -1.9435    -0.1821     0.9097 H       
  36 H36           -1.9605    -0.1726    -0.8702 H       
  37 H37           -0.9024    -2.4150    -0.8923 H       
  38 H38           -0.8854    -2.4246     0.8875 H       
  39 H39           -3.1015    -2.4165     2.0168 H       
  40 H40           -5.4863    -2.0749    -0.2445 H       
  41 H41           -6.6773    -1.2597    -2.2395 H       
  42 H42           -5.4364    -0.8206    -4.3205 H       
  43 H43           -3.0043    -1.1960    -4.4062 H       
  44 H44           -1.8126    -2.0068    -2.4098 H       
  45 H45           -4.6616    -4.2819     1.0901 H       
  46 H46           -4.6280    -6.7440     1.0770 H       
  47 H47           -2.7752    -7.9442    -0.0138 H       
  48 H48           -0.9564    -6.6823    -1.0921 H       
  49 H49           -0.9924    -4.2202    -1.0830 H       
  50 H50            1.9032     1.5624     0.8514 H       
  51 H51            1.8514     1.6667    -0.9242 H       
  52 H52            0.8549     3.8046     1.0135 H       
  53 H53            2.3699     3.8731     0.0801 H       
  54 H54            1.1014     3.8063    -2.0304 H       
  55 H55           -1.3664     3.7813    -0.2316 H       
  56 H56           -1.3617     3.8340    -2.0116 H       
  57 H57           -0.1994     1.6452    -2.0737 H       
  58 H58           -1.7393     1.5242    -1.1903 H       
  59 H59           -0.0291     5.8523    -0.0649 H       
  60 H60            2.4335     5.8244    -0.0674 H       
  61 H61            2.4505     5.8778    -1.8473 H       
  62 H62            1.2721     8.0138    -0.0124 H       
  63 H63            2.8181     8.1343    -0.8851 H       
  64 H64           -0.7708     7.9939    -1.1761 H       
  65 H65           -0.8103     8.0990    -2.9519 H       
  66 H66            0.2378     5.8562    -3.1077 H       
  67 H67           -1.2836     5.7882    -2.1848 H       
  68 H68            2.1086    10.0408    -2.0961 H       
  69 H69            0.5592    10.0257    -2.9720 H       
  70 H70            0.5755    10.0156    -1.1922 H       
  71 H71           -0.1728     1.5755     2.1023 H       
  72 H72           -0.7179     3.0269     1.2279 H       
  73 H73           -1.7249     1.5592     1.2310 H       
  74 H74            1.8154     6.6346    -3.3112 H       
  75 H75            1.2711     8.0844    -4.1887 H       
  76 H76            2.8186     8.1050    -3.3094 H       
@<TRIPOS>BOND
   1    1    2 1
   2    1   19 1
   3    1   31 1
   4    1   23 1
   5    2    3 1
   6    2   33 1
   7    2   34 1
   8    3    4 1
   9    3   35 1
  10    3   36 1
  11    4    5 1
  12    4   37 1
  13    4   38 1
  14    5    6 1
  15    5    7 1
  16    5    8 1
  17    6    9 ar
  18    6   13 ar
  19    7   14 ar
  20    7   18 ar
  21    8   39 1
  22    9   10 ar
  23    9   40 1
  24   10   11 ar
  25   10   41 1
  26   11   12 ar
  27   11   42 1
  28   12   13 ar
  29   12   43 1
  30   13   44 1
  31   14   15 ar
  32   14   45 1
  33   15   16 ar
  34   15   46 1
  35   16   17 ar
  36   16   47 1
  37   17   18 ar
  38   17   48 1
  39   18   49 1
  40   19   20 1
  41   19   50 1
  42   19   51 1
  43   20   21 1
  44   20   52 1
  45   20   53 1
  46   21   22 1
  47   21   24 1
  48   21   54 1
  49   22   23 1
  50   22   55 1
  51   22   56 1
  52   23   57 1
  53   23   58 1
  54   24   25 1
  55   24   29 1
  56   24   59 1
  57   25   26 1
  58   25   60 1
  59   25   61 1
  60   26   27 1
  61   26   62 1
  62   26   63 1
  63   27   28 1
  64   27   30 1
  65   27   32 1
  66   28   29 1
  67   28   64 1
  68   28   65 1
  69   29   66 1
  70   29   67 1
  71   30   68 1
  72   30   69 1
  73   30   70 1
  74   31   71 1
  75   31   72 1
  76   31   73 1
  77   32   74 1
  78   32   75 1
  79   32   76 1

#	End of record

