#	Name: ASD02198266
#	Creating user name:	WinNT
#	Creation time:	15. 06. 2019 20:19

#	Modifying user name:	WinNT
#	Modification time:	15. 06. 2019 20:19

#	Program:	/corina/corina34_cracker 3.40 0067  02.08.2006

@<TRIPOS>MOLECULE
ASD02198266
  29   30    0    0    0
SMALL
NO_CHARGES


@<TRIPOS>ATOM
   1 C1            -0.0175     1.3307    -0.0597 C.2     
   2 C2             0.0016    -0.0048    -0.0675 C.2     
   3 S3             1.5623     1.9703     0.0054 S.3     
   4 C4             2.2693     0.3607     0.0224 C.2     
   5 C5             1.2600    -0.5729    -0.0225 C.2     
   6 C6             3.6531     0.0722     0.0736 C.2     
   7 O7             4.5513     1.0789     0.1147 O.3     
   8 O8             4.0339    -1.0838     0.0806 O.2     
   9 N9             1.4837    -1.9490    -0.0218 N.am    
  10 C10            5.9322     0.7146     0.1653 C.3     
  11 C11            0.4446    -2.8006     0.0852 C.2     
  12 C12            0.6668    -4.2539    -0.0347 C.ar    
  13 O13           -0.6760    -2.3709     0.2806 O.2     
  14 C14            0.5917    -4.8764    -1.2856 C.ar    
  15 C15            0.8012    -6.2386    -1.3887 C.ar    
  16 C16            1.0843    -6.9862    -0.2600 C.ar    
  17 C17            1.1603    -6.3792     0.9804 C.ar    
  18 C18            0.9593    -5.0170     1.1010 C.ar    
  19 F19            1.0340    -4.4259     2.3136 F       
  20 F20            0.3149    -4.1480    -2.3892 F       
  21 H21           -0.9165     1.9281    -0.0948 H       
  22 H22           -0.9006    -0.5971    -0.1057 H       
  23 H23            2.3873    -2.2935    -0.0984 H       
  24 H24            6.1866     0.1310    -0.7195 H       
  25 H25            6.5448     1.6156     0.1948 H       
  26 H26            6.1184     0.1192     1.0591 H       
  27 H27            0.7433    -6.7208    -2.3533 H       
  28 H28            1.2465    -8.0504    -0.3477 H       
  29 H29            1.3815    -6.9705     1.8566 H       
@<TRIPOS>BOND
   1    1    2 2
   2    1    3 1
   3    1   21 1
   4    2    5 1
   5    2   22 1
   6    3    4 1
   7    4    5 2
   8    4    6 1
   9    5    9 1
  10    6    7 1
  11    6    8 2
  12    7   10 1
  13    9   11 am
  14    9   23 1
  15   10   24 1
  16   10   25 1
  17   10   26 1
  18   11   12 1
  19   11   13 2
  20   12   14 ar
  21   12   18 ar
  22   14   15 ar
  23   14   20 1
  24   15   16 ar
  25   15   27 1
  26   16   17 ar
  27   16   28 1
  28   17   18 ar
  29   17   29 1
  30   18   19 1

#	End of record

