#	Name: ASD00990079
#	Creating user name:	WinNT
#	Creation time:	15. 06. 2019 18:54

#	Modifying user name:	WinNT
#	Modification time:	15. 06. 2019 18:54

#	Program:	/corina/corina34_cracker 3.40 0067  02.08.2006

@<TRIPOS>MOLECULE
ASD00990079
  33   34    0    0    0
SMALL
NO_CHARGES


@<TRIPOS>ATOM
   1 C1            -0.0167     1.3809     0.0096 C.ar    
   2 C2             0.0021    -0.0041     0.0020 C.ar    
   3 C3            -1.1805    -0.7173     0.0095 C.ar    
   4 C4            -2.3940    -0.0465     0.0247 C.ar    
   5 C5            -2.4142     1.3471     0.0323 C.ar    
   6 C6            -1.2229     2.0592     0.0306 C.ar    
   7 O7            -3.6826    -0.4681     0.0354 O.3     
   8 C8            -4.4962     0.5994     0.0494 C.2     
   9 N9            -3.7573     1.7266     0.0480 N.am    
  10 O10           -5.7114     0.5562     0.0611 O.2     
  11 F11           -1.2408     3.4101     0.0384 F       
  12 Cl12           1.4757     2.2676     0.0001 Cl      
  13 C13           -4.2700     3.0989     0.0605 C.3     
  14 C14           -4.4320     3.5616     1.4855 C.2     
  15 O15           -4.1483     2.8211     2.3971 O.2     
  16 O16           -4.8915     4.7965     1.7421 O.3     
  17 C17           -5.0221     5.1744     3.1380 C.3     
  18 C18           -3.6537     5.0955     3.8178 C.3     
  19 C19           -5.5560     6.6052     3.2311 C.3     
  20 C20           -5.9941     4.2209     3.8357 C.3     
  21 H21            0.9460    -0.5287    -0.0102 H       
  22 H22           -1.1601    -1.7971     0.0031 H       
  23 H23           -3.5685     3.7536    -0.4566 H       
  24 H24           -5.2358     3.1306    -0.4438 H       
  25 H25           -2.9613     5.7748     3.3207 H       
  26 H26           -3.7517     5.3792     4.8657 H       
  27 H27           -3.2733     4.0762     3.7515 H       
  28 H28           -6.5309     6.6615     2.7467 H       
  29 H29           -5.6541     6.8889     4.2790 H       
  30 H30           -4.8636     7.2845     2.7340 H       
  31 H31           -5.6137     3.2016     3.7694 H       
  32 H32           -6.0921     4.5046     4.8836 H       
  33 H33           -6.9689     4.2771     3.3514 H       
@<TRIPOS>BOND
   1    1    2 ar
   2    1   12 1
   3    1    6 ar
   4    2    3 ar
   5    2   21 1
   6    3    4 ar
   7    3   22 1
   8    4    5 ar
   9    4    7 1
  10    5    6 ar
  11    5    9 1
  12    6   11 1
  13    7    8 1
  14    8    9 am
  15    8   10 2
  16    9   13 1
  17   13   14 1
  18   13   23 1
  19   13   24 1
  20   14   15 2
  21   14   16 1
  22   16   17 1
  23   17   18 1
  24   17   19 1
  25   17   20 1
  26   18   25 1
  27   18   26 1
  28   18   27 1
  29   19   28 1
  30   19   29 1
  31   19   30 1
  32   20   31 1
  33   20   32 1
  34   20   33 1

#	End of record

