#	Name: ASD01120304
#	Creating user name:	WinNT
#	Creation time:	15. 06. 2019 18:59

#	Modifying user name:	WinNT
#	Modification time:	15. 06. 2019 18:59

#	Program:	/corina/corina34_cracker 3.40 0067  02.08.2006

@<TRIPOS>MOLECULE
ASD01120304
  33   35    0    0    0
SMALL
NO_CHARGES


@<TRIPOS>ATOM
   1 Cl1            0.1832     1.2807    -2.9424 Cl      
   2 C2             0.0522     2.3526    -1.5831 C.ar    
   3 C3             1.1496     2.5754    -0.7700 C.ar    
   4 C4             1.0491     3.4289     0.3135 C.ar    
   5 C5            -0.1471     4.0619     0.5876 C.ar    
   6 C6            -1.2514     3.8409    -0.2265 C.ar    
   7 C7            -1.1467     2.9873    -1.3172 C.ar    
   8 N8            -2.4629     4.4796     0.0487 N.pl3   
   9 C9            -3.6594     3.7745    -0.0487 C.ar    
  10 C10           -3.6470     2.4085    -0.2644 C.ar    
  11 C11           -4.8371     1.7029    -0.3620 C.ar    
  12 C12           -6.0496     2.3472    -0.2469 C.ar    
  13 C13           -6.0929     3.7214    -0.0297 C.ar    
  14 C14           -4.8904     4.4464     0.0773 C.ar    
  15 C15           -5.2387     5.7985     0.2930 C.2     
  16 C16           -6.5969     5.8789     0.3142 C.2     
  17 N17           -7.1269     4.6152     0.1228 N.pl3   
  18 C18           -7.3741     7.1070     0.5136 C.2     
  19 O19           -6.8032     8.1679     0.6783 O.2     
  20 O20           -8.7220     7.0593     0.5144 O.3     
  21 N21           -7.3089     1.5763    -0.3551 N.pl3   
  22 O22           -7.2724     0.3739    -0.5456 O.2     
  23 O23           -8.3814     2.1446    -0.2535 O.2     
  24 H24            2.0863     2.0814    -0.9817 H       
  25 H25            1.9073     3.6004     0.9463 H       
  26 H26           -0.2244     4.7280     1.4342 H       
  27 H27           -2.0029     2.8136    -1.9520 H       
  28 H28           -2.4705     5.4143     0.3077 H       
  29 H29           -2.7052     1.8882    -0.3576 H       
  30 H30           -4.8131     0.6364    -0.5306 H       
  31 H31           -4.5501     6.6211     0.4186 H       
  32 H32           -8.0716     4.3967     0.0952 H       
  33 H33           -9.1908     7.8943     0.6497 H       
@<TRIPOS>BOND
   1    1    2 1
   2    2    3 ar
   3    2    7 ar
   4    3    4 ar
   5    3   24 1
   6    4    5 ar
   7    4   25 1
   8    5    6 ar
   9    5   26 1
  10    6    7 ar
  11    6    8 1
  12    7   27 1
  13    8    9 1
  14    8   28 1
  15    9   10 ar
  16    9   14 ar
  17   10   11 ar
  18   10   29 1
  19   11   12 ar
  20   11   30 1
  21   12   13 ar
  22   12   21 1
  23   13   14 ar
  24   13   17 1
  25   14   15 1
  26   15   16 2
  27   15   31 1
  28   16   17 1
  29   16   18 1
  30   17   32 1
  31   18   19 2
  32   18   20 1
  33   20   33 1
  34   21   22 2
  35   21   23 2

#	End of record

