#	Name: ASD05430568
#	Creating user name:	WinNT
#	Creation time:	15. 06. 2019 21:00

#	Modifying user name:	WinNT
#	Modification time:	15. 06. 2019 21:00

#	Program:	/corina/corina34_cracker 3.40 0067  02.08.2006

@<TRIPOS>MOLECULE
ASD05430568
  32   32    0    0    0
SMALL
NO_CHARGES


@<TRIPOS>ATOM
   1 N1            -0.0159     1.3179     0.0093 N.ar    
   2 C2             0.0021    -0.0041     0.0020 C.ar    
   3 C3             1.1174     1.9947     0.0021 C.ar    
   4 C4             2.3309     1.3155    -0.0131 C.ar    
   5 N5             2.3452    -0.0098    -0.0204 N.ar    
   6 C6             1.2068    -0.6819    -0.0127 C.ar    
   7 C7             1.0963     3.5015     0.0099 C.3     
   8 C8             1.2224    -2.1888    -0.0204 C.3     
   9 C9             1.1160    -2.7073     1.4151 C.3     
  10 C10            0.0381    -2.7069    -0.8389 C.3     
  11 C11            0.3564     4.0076    -1.2299 C.3     
  12 C12            0.3797     3.9950     1.2684 C.3     
  13 O13            3.4976     2.0080    -0.0210 O.3     
  14 C14            4.7053     1.2443    -0.0366 C.3     
  15 H15           -0.9265    -0.5556     0.0079 H       
  16 H16            2.1187     3.8792     0.0022 H       
  17 H17            2.1532    -2.5402    -0.4656 H       
  18 H18            1.1273    -3.7972     1.4095 H       
  19 H19            1.9597    -2.3382     1.9982 H       
  20 H20            0.1852    -2.3559     1.8603 H       
  21 H21            0.1139    -2.3375    -1.8616 H       
  22 H22            0.0494    -3.7968    -0.8445 H       
  23 H23           -0.8927    -2.3555    -0.3937 H       
  24 H24            0.3411     5.0975    -1.2243 H       
  25 H25            0.8669     3.6560    -2.1265 H       
  26 H26           -0.6661     3.6299    -1.2223 H       
  27 H27            0.9069     3.6344     2.1517 H       
  28 H28            0.3645     5.0849     1.2740 H       
  29 H29           -0.6427     3.6173     1.2761 H       
  30 H30            5.5616     1.9187    -0.0415 H       
  31 H31            4.7464     0.6114     0.8498 H       
  32 H32            4.7291     0.6203    -0.9300 H       
@<TRIPOS>BOND
   1    1    2 ar
   2    1    3 ar
   3    2    6 ar
   4    2   15 1
   5    3    4 ar
   6    3    7 1
   7    4    5 ar
   8    4   13 1
   9    5    6 ar
  10    6    8 1
  11    7   11 1
  12    7   12 1
  13    7   16 1
  14    8    9 1
  15    8   10 1
  16    8   17 1
  17    9   18 1
  18    9   19 1
  19    9   20 1
  20   10   21 1
  21   10   22 1
  22   10   23 1
  23   11   24 1
  24   11   25 1
  25   11   26 1
  26   12   27 1
  27   12   28 1
  28   12   29 1
  29   13   14 1
  30   14   30 1
  31   14   31 1
  32   14   32 1

#	End of record

