#	Name: ASD02038790
#	Creating user name:	WinNT
#	Creation time:	15. 06. 2019 20:17

#	Modifying user name:	WinNT
#	Modification time:	15. 06. 2019 20:17

#	Program:	/corina/corina34_cracker 3.40 0067  02.08.2006

@<TRIPOS>MOLECULE
ASD02038790
  42   44    0    0    0
SMALL
NO_CHARGES


@<TRIPOS>ATOM
   1 C1            -1.2847    -0.8282     0.4558 C.2     
   2 C2            -0.0542    -0.0230     0.3005 C.2     
   3 N3             1.1377    -0.6350     0.1543 N.am    
   4 C4             1.2277    -2.0945     0.2451 C.3     
   5 C5             1.1987    -2.6867    -1.1404 C.ar    
   6 C6             2.3432     0.1591    -0.0953 C.3     
   7 O7            -0.1176     1.1909     0.3047 O.2     
   8 N8            -1.3541    -2.1717     0.4789 N.2     
   9 C9            -2.6134    -2.4931     0.6327 C.2     
  10 N10           -3.3199    -1.3498     0.7044 N.pl3   
  11 N11           -2.5040    -0.3578     0.6014 N.2     
  12 C12            2.3811    -3.0170    -1.7754 C.ar    
  13 C13            2.1444     1.0109    -1.3528 C.3     
  14 C14            3.3769     1.8948    -1.5611 C.3     
  15 O15            3.5806     2.7064    -0.4027 O.3     
  16 C16            3.8189     1.9644     0.7951 C.3     
  17 C17            2.6042     1.0833     1.0980 C.3     
  18 C18           -0.0106    -2.9045    -1.7733 C.ar    
  19 C19           -0.0379    -3.4486    -3.0452 C.ar    
  20 C20            1.1454    -3.7746    -3.6833 C.ar    
  21 C21            2.3551    -3.5612    -3.0472 C.ar    
  22 Cl22           3.8406    -3.9700    -3.8472 Cl      
  23 C23           -4.7713    -1.2500     0.8765 C.3     
  24 Cl24          -1.5568    -3.7227    -3.8398 Cl      
  25 H25            2.1592    -2.3710     0.7390 H       
  26 H26            0.3842    -2.4754     0.8208 H       
  27 H27            3.1952    -0.5059    -0.2363 H       
  28 H28           -3.0133    -3.4946     0.6912 H       
  29 H29            3.3256    -2.8501    -1.2788 H       
  30 H30            2.0129     0.3596    -2.2169 H       
  31 H31            1.2619     1.6391    -1.2314 H       
  32 H32            4.2522     1.2657    -1.7227 H       
  33 H33            3.2230     2.5341    -2.4304 H       
  34 H34            4.7001     1.3362     0.6643 H       
  35 H35            3.9835     2.6538     1.6231 H       
  36 H36            1.7310     1.7130     1.2689 H       
  37 H37            2.8016     0.4838     1.9867 H       
  38 H38           -0.9344    -2.6503    -1.2749 H       
  39 H39            1.1246    -4.1993    -4.6760 H       
  40 H40           -5.0095    -1.2140     1.9395 H       
  41 H41           -5.1331    -0.3430     0.3921 H       
  42 H42           -5.2512    -2.1188     0.4259 H       
@<TRIPOS>BOND
   1    1    2 1
   2    1    8 1
   3    1   11 2
   4    2    3 am
   5    2    7 2
   6    3    4 1
   7    3    6 1
   8    4    5 1
   9    4   25 1
  10    4   26 1
  11    5   12 ar
  12    5   18 ar
  13    6   13 1
  14    6   17 1
  15    6   27 1
  16    8    9 2
  17    9   10 1
  18    9   28 1
  19   10   11 1
  20   10   23 1
  21   12   21 ar
  22   12   29 1
  23   13   14 1
  24   13   30 1
  25   13   31 1
  26   14   15 1
  27   14   32 1
  28   14   33 1
  29   15   16 1
  30   16   17 1
  31   16   34 1
  32   16   35 1
  33   17   36 1
  34   17   37 1
  35   18   19 ar
  36   18   38 1
  37   19   20 ar
  38   19   24 1
  39   20   21 ar
  40   20   39 1
  41   21   22 1
  42   23   40 1
  43   23   41 1
  44   23   42 1

#	End of record

