#	Name: ASD03090267
#	Creating user name:	WinNT
#	Creation time:	15. 06. 2019 20:28

#	Modifying user name:	WinNT
#	Modification time:	15. 06. 2019 20:28

#	Program:	/corina/corina34_cracker 3.40 0067  02.08.2006

@<TRIPOS>MOLECULE
ASD03090267
  51   54    0    0    0
SMALL
NO_CHARGES


@<TRIPOS>ATOM
   1 N1             0.0389     1.1914     1.2951 N.ar    
   2 C2             0.0908    -0.1373     1.2896 C.ar    
   3 C3             1.2879    -0.8000     1.0279 C.ar    
   4 C4             2.4362    -0.0441     0.7703 C.ar    
   5 C5             2.3283     1.3500     0.7874 C.ar    
   6 C6             1.1002     1.9298     1.0568 C.ar    
   7 C7             3.7314    -0.7024     0.4874 C.2     
   8 N8             5.7432    -3.4228    -0.4642 N.pl3   
   9 C9             4.9018    -4.4729    -0.8460 C.ar    
  10 C10            3.6950    -4.2025    -1.4776 C.ar    
  11 C11            2.8656    -5.2411    -1.8537 C.ar    
  12 C12            3.2365    -6.5509    -1.6011 C.ar    
  13 C13            4.4396    -6.8229    -0.9714 C.ar    
  14 C14            5.2747    -5.7880    -0.5991 C.ar    
  15 N15            3.8980    -1.9510     0.1000 N.2     
  16 C16            5.1978    -2.2025    -0.0609 C.2     
  17 N17            5.8822    -1.1174     0.2214 N.2     
  18 N18            4.9514    -0.1272     0.5752 N.pl3   
  19 C19            5.2450     1.2528     0.9696 C.3     
  20 F20            2.4234    -7.5651    -1.9691 F       
  21 C21            5.2906     2.1269    -0.2572 C.2     
  22 N22            5.5466     3.4446    -0.1366 N.am    
  23 O23            5.0968     1.6446    -1.3530 O.2     
  24 C24            5.5908     4.2943    -1.3292 C.3     
  25 C25            5.2990     5.7850    -1.1457 C.3     
  26 C26            6.7271     5.3141    -1.4282 C.3     
  27 C27           -1.1314    -0.9173     1.5637 C.2     
  28 C28           -2.4301    -0.2078     1.8481 C.3     
  29 O29           -1.0907    -2.1287     1.5601 O.2     
  30 C30            4.8403    -8.2496    -0.6974 C.3     
  31 F31            6.0848    -8.2699    -0.0586 F       
  32 F32            3.8836    -8.8527     0.1260 F       
  33 F33            4.9246    -8.9504    -1.9052 F       
  34 H34            1.3286    -1.8792     1.0245 H       
  35 H35            3.1931     1.9672     0.5935 H       
  36 H36            1.0124     3.0062     1.0706 H       
  37 H37            6.7057    -3.5424    -0.4795 H       
  38 H38            3.4049    -3.1809    -1.6742 H       
  39 H39            1.9269    -5.0313    -2.3449 H       
  40 H40            6.2129    -6.0006    -0.1081 H       
  41 H41            4.4665     1.6118     1.6428 H       
  42 H42            6.2090     1.2884     1.4770 H       
  43 H43            5.7015     3.8304     0.7398 H       
  44 H44            5.2531     3.8254    -2.2534 H       
  45 H45            4.7696     6.2968    -1.9494 H       
  46 H46            5.0741     6.1335    -0.1377 H       
  47 H47            7.4417     5.3528    -0.6061 H       
  48 H48            7.1372     5.5162    -2.4177 H       
  49 H49           -2.2717     0.8699     1.8081 H       
  50 H50           -3.1714    -0.4939     1.1019 H       
  51 H51           -2.7866    -0.4861     2.8398 H       
@<TRIPOS>BOND
   1    1    2 ar
   2    1    6 ar
   3    2    3 ar
   4    2   27 1
   5    3    4 ar
   6    3   34 1
   7    4    5 ar
   8    4    7 1
   9    5    6 ar
  10    5   35 1
  11    6   36 1
  12    7   15 2
  13    7   18 1
  14    8    9 1
  15    8   16 1
  16    8   37 1
  17    9   10 ar
  18    9   14 ar
  19   10   11 ar
  20   10   38 1
  21   11   12 ar
  22   11   39 1
  23   12   13 ar
  24   12   20 1
  25   13   14 ar
  26   13   30 1
  27   14   40 1
  28   15   16 1
  29   16   17 2
  30   17   18 1
  31   18   19 1
  32   19   21 1
  33   19   41 1
  34   19   42 1
  35   21   22 am
  36   21   23 2
  37   22   24 1
  38   22   43 1
  39   24   25 1
  40   24   26 1
  41   24   44 1
  42   25   26 1
  43   25   45 1
  44   25   46 1
  45   26   47 1
  46   26   48 1
  47   27   28 1
  48   27   29 2
  49   28   49 1
  50   28   50 1
  51   28   51 1
  52   30   31 1
  53   30   32 1
  54   30   33 1

#	End of record

