#	Name: ASD01814819
#	Creating user name:	WinNT
#	Creation time:	15. 06. 2019 19:33

#	Modifying user name:	WinNT
#	Modification time:	15. 06. 2019 19:33

#	Program:	/corina/corina34_cracker 3.40 0067  02.08.2006

@<TRIPOS>MOLECULE
ASD01814819
  46   48    0    0    0
SMALL
NO_CHARGES


@<TRIPOS>ATOM
   1 C1             0.6524     2.0148    -0.0863 C.2     
   2 C2             0.5188     0.6225     0.0009 C.2     
   3 C3             1.6344    -0.1622    -0.0282 C.2     
   4 C4             2.8987     0.4391    -0.1452 C.2     
   5 N5             2.9998     1.8013    -0.2282 N.am    
   6 C6             1.8778     2.5753    -0.1985 C.2     
   7 C7             4.0467    -0.3651    -0.1752 C.2     
   8 C8             5.2797     0.2088    -0.2882 C.2     
   9 C9             5.3798     1.6099    -0.3739 C.2     
  10 C10            4.2069     2.3914    -0.3405 C.2     
  11 O11            4.2843     3.6061    -0.4146 O.2     
  12 C12            6.6912     2.2506    -0.4952 C.2     
  13 O13            6.7804     3.5942    -0.5770 O.3     
  14 O14            7.6999     1.5713    -0.5224 O.2     
  15 C15            3.9192    -1.8638    -0.0822 C.3     
  16 N16            3.9074    -2.4391    -1.4339 N.3     
  17 C17            4.1604    -3.8855    -1.3927 C.3     
  18 C18            3.9910    -4.4756    -2.7641 C.2     
  19 N19            3.3470    -3.8419    -3.7498 N.am    
  20 C20            2.7800    -2.5052    -3.5965 C.3     
  21 C21            2.6299    -2.1663    -2.1121 C.3     
  22 H22            3.2525    -4.2901    -4.6048 H       
  23 O23            4.4583    -5.5725    -2.9864 O.2     
  24 C24            7.9939    -3.5700    -1.2688 C.3     
  25 C25            6.5767    -3.4195    -1.8252 C.3     
  26 C26            5.5883    -4.1376    -0.9042 C.3     
  27 H27           -0.2267     2.6420    -0.0684 H       
  28 H28           -0.4596     0.1743     0.0908 H       
  29 H29            1.5464    -1.2365     0.0385 H       
  30 H30            1.9690     3.6494    -0.2647 H       
  31 H31            6.1680    -0.4049    -0.3112 H       
  32 H32            7.6674     3.9712    -0.6559 H       
  33 H33            4.7640    -2.2664     0.4766 H       
  34 H34            2.9908    -2.1185     0.4291 H       
  35 H35            3.4565    -4.3566    -0.7066 H       
  36 H36            3.4388    -1.7766    -4.0689 H       
  37 H37            1.8018    -2.4701    -4.0762 H       
  38 H38            1.8446    -2.7822    -1.6739 H       
  39 H39            2.3752    -1.1123    -2.0018 H       
  40 H40            8.2519    -4.6276    -1.2130 H       
  41 H41            8.6981    -3.0584    -1.9250 H       
  42 H42            8.0415    -3.1313    -0.2721 H       
  43 H43            6.3187    -2.3619    -1.8810 H       
  44 H44            6.5291    -3.8582    -2.8219 H       
  45 H45            5.6970    -3.7582     0.1119 H       
  46 H46            5.7926    -5.2082    -0.9160 H       
@<TRIPOS>BOND
   1    1    2 1
   2    1    6 2
   3    1   27 1
   4    2    3 2
   5    2   28 1
   6    3    4 1
   7    3   29 1
   8    4    5 1
   9    4    7 2
  10    5    6 1
  11    5   10 am
  12    6   30 1
  13    7   15 1
  14    7    8 1
  15    8    9 2
  16    8   31 1
  17    9   10 1
  18    9   12 1
  19   10   11 2
  20   12   13 1
  21   12   14 2
  22   13   32 1
  23   15   16 1
  24   15   33 1
  25   15   34 1
  26   16   17 1
  27   16   21 1
  28   17   18 1
  29   17   26 1
  30   17   35 1
  31   18   19 am
  32   18   23 2
  33   19   20 1
  34   19   22 1
  35   20   21 1
  36   20   36 1
  37   20   37 1
  38   21   38 1
  39   21   39 1
  40   24   25 1
  41   24   40 1
  42   24   41 1
  43   24   42 1
  44   25   26 1
  45   25   43 1
  46   25   44 1
  47   26   45 1
  48   26   46 1

#	End of record

