#	Name: ASD03200081
#	Creating user name:	WinNT
#	Creation time:	15. 06. 2019 20:34

#	Modifying user name:	WinNT
#	Modification time:	15. 06. 2019 20:34

#	Program:	/corina/corina34_cracker 3.40 0067  02.08.2006

@<TRIPOS>MOLECULE
ASD03200081
  25   26    0    0    0
SMALL
NO_CHARGES


@<TRIPOS>ATOM
   1 C1             0.9285    -0.0418    -0.8129 C.ar    
   2 C2             2.1097     0.6653    -0.6976 C.ar    
   3 C3             2.3698     1.4011     0.4442 C.ar    
   4 C4             1.4502     1.4343     1.4768 C.ar    
   5 C5            -0.3310    -3.2056    -0.2378 C.3     
   6 C6            -0.0026    -0.0123     0.2246 C.ar    
   7 C7             0.2654     0.7313     1.3733 C.ar    
   8 C8            -1.4175    -2.1711    -0.0953 C.2     
   9 C9            -1.2730    -0.7700     0.1073 C.2     
  10 C10           -2.7561    -2.3578    -0.1361 C.2     
  11 Cl11           0.6009    -0.9595    -2.2497 Cl      
  12 Cl12          -0.8873     0.7738     2.6706 Cl      
  13 N13           -2.4881    -0.2842     0.1700 N.2     
  14 O14           -3.3183    -1.1530     0.0368 O.3     
  15 O15           -0.0923    -3.8232     1.0286 O.3     
  16 C16           -3.4763    -3.6663    -0.3370 C.3     
  17 H17            2.8316     0.6432    -1.5005 H       
  18 H18            3.2949     1.9517     0.5301 H       
  19 H19            1.6590     2.0107     2.3659 H       
  20 H20           -0.6419    -3.9622    -0.9582 H       
  21 H21            0.5837    -2.7262    -0.5864 H       
  22 H22            0.5968    -4.5014     1.0117 H       
  23 H23           -3.6600    -4.1323     0.6311 H       
  24 H24           -4.4267    -3.4846    -0.8389 H       
  25 H25           -2.8632    -4.3284    -0.9484 H       
@<TRIPOS>BOND
   1    1    6 ar
   2    1    2 ar
   3    1   11 1
   4    2    3 ar
   5    2   17 1
   6    3    4 ar
   7    3   18 1
   8    4   19 1
   9    4    7 ar
  10    5    8 1
  11    5   20 1
  12    5   21 1
  13    5   15 1
  14    6    7 ar
  15    6    9 1
  16    7   12 1
  17    8    9 1
  18    8   10 2
  19    9   13 2
  20   10   14 1
  21   10   16 1
  22   13   14 1
  23   15   22 1
  24   16   23 1
  25   16   24 1
  26   16   25 1

#	End of record

