#	Name: ASD01815852
#	Creating user name:	WinNT
#	Creation time:	15. 06. 2019 19:34

#	Modifying user name:	WinNT
#	Modification time:	15. 06. 2019 19:34

#	Program:	/corina/corina34_cracker 3.40 0067  02.08.2006

@<TRIPOS>MOLECULE
ASD01815852
  55   60    0    0    0
SMALL
NO_CHARGES


@<TRIPOS>ATOM
   1 C1            -0.0294     1.3903    -0.0388 C.ar    
   2 C2            -0.0147     0.0024    -0.0607 C.ar    
   3 C3            -1.2043    -0.7002    -0.0621 C.ar    
   4 C4            -2.4097    -0.0234    -0.0421 C.ar    
   5 C5            -2.4300     1.3595    -0.0202 C.ar    
   6 C6            -1.2435     2.0693    -0.0129 C.ar    
   7 F7            -1.2631     3.4199     0.0089 F       
   8 N8             1.1747     2.1051    -0.0369 N.am    
   9 C9             1.8787     2.4331    -1.1422 C.2     
  10 N10            1.8155     2.5856     1.1084 N.2     
  11 C11            2.9183     3.2141     0.7978 C.2     
  12 C12            3.0488     3.1675    -0.6761 C.2     
  13 O13            1.5929     2.1675    -2.2990 O.2     
  14 C14            3.9720     3.9054     1.5500 C.2     
  15 C15            4.9937     4.4568     0.8718 C.2     
  16 N16            5.0604     4.3790    -0.4975 N.pl3   
  17 C17            4.1387     3.7677    -1.2549 C.2     
  18 C18            6.2026     5.0034    -1.1695 C.3     
  19 C19            5.8208     6.3875    -1.6275 C.ar    
  20 C20            5.9281     7.4558    -0.7555 C.ar    
  21 C21            5.5799     8.7255    -1.1696 C.ar    
  22 C22            5.1194     8.9300    -2.4687 C.ar    
  23 C23            5.0133     7.8502    -3.3429 C.ar    
  24 C24            5.3697     6.5857    -2.9199 C.ar    
  25 C25            4.7430    10.2928    -2.9194 C.ar    
  26 C26            4.2826    10.4973    -4.2185 C.ar    
  27 C27            4.1355     4.1278     3.0368 C.3     
  28 C28            5.6179     4.5193     3.2202 C.3     
  29 C29            5.9589     5.1172     1.8387 C.3     
  30 C30            3.9339    11.7669    -4.6325 C.ar    
  31 C31            4.0413    12.8353    -3.7606 C.ar    
  32 C32            4.4982    12.6381    -2.4700 C.ar    
  33 C33            4.8433    11.3717    -2.0434 C.ar    
  34 H34            0.9261    -0.5278    -0.0771 H       
  35 H35           -1.1927    -1.7800    -0.0792 H       
  36 H36           -3.3377    -0.5758    -0.0440 H       
  37 H37           -3.3734     1.8851    -0.0046 H       
  38 H38            4.2567     3.7442    -2.3282 H       
  39 H39            7.0411     5.0685    -0.4761 H       
  40 H40            6.4902     4.4018    -2.0318 H       
  41 H41            6.2848     7.2961     0.2513 H       
  42 H42            5.6637     9.5590    -0.4878 H       
  43 H43            4.6570     8.0031    -4.3509 H       
  44 H44            5.2879     5.7479    -3.5967 H       
  45 H45            4.1991     9.6639    -4.9004 H       
  46 H46            3.4857     4.9359     3.3729 H       
  47 H47            3.9152     3.2110     3.5837 H       
  48 H48            5.7298     5.2657     4.0066 H       
  49 H49            6.2303     3.6418     3.4274 H       
  50 H50            6.9876     4.8801     1.5674 H       
  51 H51            5.8079     6.1966     1.8459 H       
  52 H52            3.5769    11.9266    -5.6392 H       
  53 H53            3.7677    13.8272    -4.0887 H       
  54 H54            4.5804    13.4758    -1.7934 H       
  55 H55            5.1996    11.2187    -1.0354 H       
@<TRIPOS>BOND
   1    1    2 ar
   2    1    8 1
   3    1    6 ar
   4    2    3 ar
   5    2   34 1
   6    3    4 ar
   7    3   35 1
   8    4    5 ar
   9    4   36 1
  10    5    6 ar
  11    5   37 1
  12    6    7 1
  13    8    9 am
  14    8   10 1
  15    9   13 2
  16    9   12 1
  17   10   11 2
  18   11   12 1
  19   11   14 1
  20   12   17 2
  21   14   15 2
  22   14   27 1
  23   15   16 1
  24   15   29 1
  25   16   17 1
  26   16   18 1
  27   17   38 1
  28   18   19 1
  29   18   39 1
  30   18   40 1
  31   19   20 ar
  32   19   24 ar
  33   20   21 ar
  34   20   41 1
  35   21   22 ar
  36   21   42 1
  37   22   23 ar
  38   22   25 1
  39   23   24 ar
  40   23   43 1
  41   24   44 1
  42   25   26 ar
  43   25   33 ar
  44   26   30 ar
  45   26   45 1
  46   27   28 1
  47   27   46 1
  48   27   47 1
  49   28   29 1
  50   28   48 1
  51   28   49 1
  52   29   50 1
  53   29   51 1
  54   30   31 ar
  55   30   52 1
  56   31   32 ar
  57   31   53 1
  58   32   33 ar
  59   32   54 1
  60   33   55 1

#	End of record

