#	Name: ASD03330827
#	Creating user name:	WinNT
#	Creation time:	15. 06. 2019 20:38

#	Modifying user name:	WinNT
#	Modification time:	15. 06. 2019 20:38

#	Program:	/corina/corina34_cracker 3.40 0067  02.08.2006

@<TRIPOS>MOLECULE
ASD03330827
  66   68    0    0    0
SMALL
NO_CHARGES


@<TRIPOS>ATOM
   1 C1             0.2093     1.8078     1.7090 C.2     
   2 N2             0.1634     0.5065     2.0798 N.pl3   
   3 C3             1.4884     2.0704     1.3207 C.2     
   4 N4             2.1983     0.9276     1.4423 N.2     
   5 C5             1.4085    -0.0188     1.8924 C.2     
   6 C6             1.8022    -1.4211     2.1526 C.ar    
   7 C7             2.0048     3.3683     0.8513 C.2     
   8 O8             1.2630     4.3297     0.7843 O.2     
   9 N9             3.2992     3.4899     0.4961 N.am    
  10 C10           -1.0177    -0.1882     2.5998 C.3     
  11 C11           -2.2218     0.1304     1.7082 C.3     
  12 C12           -2.9000     1.4070     2.1952 C.3     
  13 N13           -1.9190     2.3479     2.7402 N.3     
  14 C14           -0.9532     2.7665     1.7136 C.3     
  15 C15            1.4738    -2.0273     3.3653 C.ar    
  16 C16            1.8440    -3.3354     3.6019 C.ar    
  17 C17            2.5397    -4.0452     2.6398 C.ar    
  18 C18            2.8688    -3.4495     1.4351 C.ar    
  19 C19            2.4987    -2.1445     1.1838 C.ar    
  20 C20            3.8126     4.7802     0.0294 C.3     
  21 C21            5.2972     4.8501     0.2789 C.2     
  22 C22            3.5400     4.9258    -1.4690 C.3     
  23 C23            2.0368     4.8052    -1.7280 C.3     
  24 C24            4.0316     6.2938    -1.9463 C.3     
  25 C25            4.2788     3.8240    -2.2313 C.3     
  26 O26            5.9144     3.8423     0.5516 O.2     
  27 N27            5.9390     6.0326     0.1991 N.am    
  28 C28            7.3932     6.0895     0.3676 C.3     
  29 C29           -2.5836     3.5110     3.3431 C.3     
  30 C30            2.8575    -1.4973    -0.1290 C.3     
  31 C31            2.9412    -5.4733     2.9050 C.3     
  32 F32            3.5593    -2.4107    -0.9228 F       
  33 F33            1.6887    -1.1059    -0.7909 F       
  34 F34            3.6575    -0.3743     0.1080 F       
  35 F35            2.5024    -5.8524     4.1782 F       
  36 F36            2.3600    -6.3074     1.9439 F       
  37 F37            4.3341    -5.5860     2.8392 F       
  38 H38            3.8909     2.7231     0.5495 H       
  39 H39           -0.8378    -1.2633     2.5985 H       
  40 H40           -1.2189     0.1471     3.6172 H       
  41 H41           -1.8857     0.2678     0.6805 H       
  42 H42           -2.9319    -0.6956     1.7492 H       
  43 H43           -3.4208     1.8764     1.3606 H       
  44 H44           -3.6231     1.1547     2.9708 H       
  45 H45           -0.5958     3.7715     1.9378 H       
  46 H46           -1.4349     2.7597     0.7358 H       
  47 H47            0.9313    -1.4738     4.1175 H       
  48 H48            1.5903    -3.8059     4.5403 H       
  49 H49            3.4124    -4.0088     0.6881 H       
  50 H50            3.3151     5.5859     0.5692 H       
  51 H51            1.5105     5.5902    -1.1849 H       
  52 H52            1.8426     4.9090    -2.7955 H       
  53 H53            1.6866     3.8307    -1.3879 H       
  54 H54            5.0723     6.4288    -1.6520 H       
  55 H55            3.9507     6.3505    -3.0318 H       
  56 H56            3.4219     7.0767    -1.4952 H       
  57 H57            3.9285     2.8494    -1.8913 H       
  58 H58            4.0845     3.9277    -3.2988 H       
  59 H59            5.3496     3.9099    -2.0468 H       
  60 H60            5.4381     6.8458     0.0301 H       
  61 H61            7.7300     7.1217     0.2709 H       
  62 H62            7.6597     5.7114     1.3545 H       
  63 H63            7.8718     5.4780    -0.3973 H       
  64 H64           -3.2354     3.1786     4.1511 H       
  65 H65           -1.8322     4.1936     3.7400 H       
  66 H66           -3.1765     4.0238     2.5857 H       
@<TRIPOS>BOND
   1    1    2 1
   2    1    3 2
   3    1   14 1
   4    2   10 1
   5    2    5 1
   6    3    4 1
   7    3    7 1
   8    4    5 2
   9    5    6 1
  10    6   15 ar
  11    6   19 ar
  12    7    8 2
  13    7    9 am
  14    9   20 1
  15    9   38 1
  16   10   11 1
  17   10   39 1
  18   10   40 1
  19   11   12 1
  20   11   41 1
  21   11   42 1
  22   12   13 1
  23   12   43 1
  24   12   44 1
  25   13   14 1
  26   13   29 1
  27   14   45 1
  28   14   46 1
  29   15   16 ar
  30   15   47 1
  31   16   17 ar
  32   16   48 1
  33   17   18 ar
  34   17   31 1
  35   18   19 ar
  36   18   49 1
  37   19   30 1
  38   20   21 1
  39   20   22 1
  40   20   50 1
  41   21   26 2
  42   21   27 am
  43   22   23 1
  44   22   24 1
  45   22   25 1
  46   23   51 1
  47   23   52 1
  48   23   53 1
  49   24   54 1
  50   24   55 1
  51   24   56 1
  52   25   57 1
  53   25   58 1
  54   25   59 1
  55   27   28 1
  56   27   60 1
  57   28   61 1
  58   28   62 1
  59   28   63 1
  60   29   64 1
  61   29   65 1
  62   29   66 1
  63   30   32 1
  64   30   33 1
  65   30   34 1
  66   31   35 1
  67   31   36 1
  68   31   37 1

#	End of record

