#	Name: ASD03091264
#	Creating user name:	WinNT
#	Creation time:	15. 06. 2019 20:30

#	Modifying user name:	WinNT
#	Modification time:	15. 06. 2019 20:30

#	Program:	/corina/corina34_cracker 3.40 0067  02.08.2006

@<TRIPOS>MOLECULE
ASD03091264
  45   49    0    0    0
SMALL
NO_CHARGES


@<TRIPOS>ATOM
   1 N1             0.0281     1.6521    -0.0747 N.2     
   2 C2            -0.0206     0.3571    -0.1458 C.2     
   3 N3             1.0855    -0.4329    -0.1697 N.am    
   4 C4             2.3229     0.1133    -0.1190 C.2     
   5 C5             2.4131     1.5788    -0.0380 C.ar    
   6 C6             3.6382     2.2393     0.0193 C.ar    
   7 C7             3.6603     3.6216     0.0950 C.ar    
   8 C8             2.4687     4.3464     0.1139 C.ar    
   9 C9             1.2609     3.7115     0.0589 C.ar    
  10 C10            1.2095     2.3180    -0.0185 C.ar    
  11 O11            3.3222    -0.5816    -0.1392 O.2     
  12 C12            5.9283     3.4525     0.8172 C.3     
  13 N13            4.8838     4.2947     0.1533 N.3     
  14 C14            4.7735     5.5281     0.9690 C.3     
  15 C15            5.8386     5.3652     2.0972 C.3     
  16 N16            5.2725     4.2991     2.9827 N.3     
  17 C17            5.2843     3.0521     2.1806 C.3     
  18 C18            6.9318     4.5545     1.3130 C.3     
  19 C19            3.9082     4.6382     3.4087 C.3     
  20 C20            0.9370    -1.8880    -0.2507 C.3     
  21 C21           -1.3731    -0.3051    -0.2043 C.3     
  22 C22           -2.5584     0.4551     0.3942 C.3     
  23 C23           -2.4255     0.3178    -1.1238 C.3     
  24 H24            4.5613     1.6789     0.0050 H       
  25 H25            2.5017     5.4243     0.1732 H       
  26 H26            0.3467     4.2863     0.0751 H       
  27 H27            6.3387     2.6378     0.2206 H       
  28 H28            4.9968     6.4050     0.3613 H       
  29 H29            3.7754     5.6091     1.3996 H       
  30 H30            6.1589     6.2814     2.5932 H       
  31 H31            4.2673     2.6910     2.0274 H       
  32 H32            5.8870     2.2899     2.6746 H       
  33 H33            7.6997     4.1495     1.9720 H       
  34 H34            7.3600     5.1258     0.4893 H       
  35 H35            3.2370     4.5887     2.5514 H       
  36 H36            3.5787     3.9306     4.1695 H       
  37 H37            3.8966     5.6470     3.8215 H       
  38 H38            0.3303    -2.1435    -1.1195 H       
  39 H39            1.9202    -2.3489    -0.3459 H       
  40 H40            0.4500    -2.2544     0.6530 H       
  41 H41           -1.3698    -1.3906    -0.1054 H       
  42 H42           -3.3350    -0.1303     0.8865 H       
  43 H43           -2.3599     1.4342     0.8302 H       
  44 H44           -2.1395     1.2064    -1.6864 H       
  45 H45           -3.1146    -0.3580    -1.6302 H       
@<TRIPOS>BOND
   1    1    2 2
   2    1   10 1
   3    2    3 1
   4    2   21 1
   5    3    4 am
   6    3   20 1
   7    4    5 1
   8    4   11 2
   9    5    6 ar
  10    5   10 ar
  11    6    7 ar
  12    6   24 1
  13    7    8 ar
  14    7   13 1
  15    8    9 ar
  16    8   25 1
  17    9   10 ar
  18    9   26 1
  19   12   13 1
  20   12   17 1
  21   12   18 1
  22   12   27 1
  23   13   14 1
  24   14   15 1
  25   14   28 1
  26   14   29 1
  27   15   16 1
  28   15   18 1
  29   15   30 1
  30   16   17 1
  31   16   19 1
  32   17   31 1
  33   17   32 1
  34   18   33 1
  35   18   34 1
  36   19   35 1
  37   19   36 1
  38   19   37 1
  39   20   38 1
  40   20   39 1
  41   20   40 1
  42   21   22 1
  43   21   23 1
  44   21   41 1
  45   22   23 1
  46   22   42 1
  47   22   43 1
  48   23   44 1
  49   23   45 1

#	End of record

