#	Name: ASD09610033
#	Creating user name:	WinNT
#	Creation time:	15. 06. 2019 21:22

#	Modifying user name:	WinNT
#	Modification time:	15. 06. 2019 21:22

#	Program:	/corina/corina34_cracker 3.40 0067  02.08.2006

@<TRIPOS>MOLECULE
ASD09610033
  45   46    0    0    0
SMALL
NO_CHARGES


@<TRIPOS>ATOM
   1 C1            -1.0138     1.6809     0.2419 C.2     
   2 N2            -1.3145     0.4144     0.3129 N.2     
   3 C3            -0.1870    -0.3080     0.4078 C.2     
   4 C4             0.8588     0.5376     0.3957 C.2     
   5 N5             0.3421     1.8071     0.2903 N.am    
   6 C6             1.0431     2.9573     0.2433 C.2     
   7 O7             0.6058     3.9820    -0.5137 O.3     
   8 S8             2.4892     3.1158     1.1458 S.2     
   9 C9             1.2634     5.8987    -1.8645 C.3     
  10 C10            1.4113     5.1902    -0.5165 C.3     
  11 C11            0.9395     6.1202     0.6030 C.3     
  12 C12            1.2479     5.4830     1.9594 C.3     
  13 C13            1.6672     7.4615     0.4923 C.3     
  14 C14           -0.5685     6.3462     0.4768 C.3     
  15 O15           -0.0947     6.3063    -2.0418 O.3     
  16 C16           -0.3986     6.9554    -3.1975 C.ar    
  17 C17           -1.6980     7.3789    -3.4340 C.ar    
  18 C18           -2.0067     8.0381    -4.6079 C.ar    
  19 C19           -1.0171     8.2769    -5.5500 C.ar    
  20 C20            0.2825     7.8542    -5.3131 C.ar    
  21 C21            0.5920     7.1989    -4.1372 C.ar    
  22 O22           -1.3212     8.9251    -6.7061 O.3     
  23 C23           -0.2529     9.1371    -7.6312 C.3     
  24 H24           -1.7203     2.4931     0.1547 H       
  25 H25           -0.1295    -1.3840     0.4817 H       
  26 H26            1.9035     0.2707     0.4570 H       
  27 H27            1.9116     6.7746    -1.8876 H       
  28 H28            1.5456     5.2165    -2.6664 H       
  29 H29            2.4575     4.9297    -0.3558 H       
  30 H30            2.3222     5.3221     2.0493 H       
  31 H31            0.9118     6.1456     2.7569 H       
  32 H32            0.7295     4.5275     2.0382 H       
  33 H33            1.4474     7.9155    -0.4740 H       
  34 H34            1.3311     8.1241     1.2899 H       
  35 H35            2.7415     7.3006     0.5823 H       
  36 H36           -1.0696     5.3874     0.3439 H       
  37 H37           -0.9405     6.8284     1.3807 H       
  38 H38           -0.7695     6.9837    -0.3842 H       
  39 H39           -2.4685     7.1929    -2.7004 H       
  40 H40           -3.0186     8.3672    -4.7924 H       
  41 H41            1.0529     8.0399    -6.0468 H       
  42 H42            1.6047     6.8730    -3.9511 H       
  43 H43            0.1611     8.1756    -7.9347 H       
  44 H44           -0.6306     9.6631    -8.5080 H       
  45 H45            0.5256     9.7344    -7.1566 H       
@<TRIPOS>BOND
   1    1    2 2
   2    1    5 1
   3    1   24 1
   4    2    3 1
   5    3    4 2
   6    3   25 1
   7    4    5 1
   8    4   26 1
   9    5    6 am
  10    6    7 1
  11    6    8 2
  12    7   10 1
  13    9   10 1
  14    9   15 1
  15    9   27 1
  16    9   28 1
  17   10   11 1
  18   10   29 1
  19   11   12 1
  20   11   13 1
  21   11   14 1
  22   12   30 1
  23   12   31 1
  24   12   32 1
  25   13   33 1
  26   13   34 1
  27   13   35 1
  28   14   36 1
  29   14   37 1
  30   14   38 1
  31   15   16 1
  32   16   17 ar
  33   16   21 ar
  34   17   18 ar
  35   17   39 1
  36   18   19 ar
  37   18   40 1
  38   19   20 ar
  39   19   22 1
  40   20   21 ar
  41   20   41 1
  42   21   42 1
  43   22   23 1
  44   23   43 1
  45   23   44 1
  46   23   45 1

#	End of record

