#	Name: ASD01813236
#	Creating user name:	WinNT
#	Creation time:	15. 06. 2019 19:30

#	Modifying user name:	WinNT
#	Modification time:	15. 06. 2019 19:30

#	Program:	/corina/corina34_cracker 3.40 0067  02.08.2006

@<TRIPOS>MOLECULE
ASD01813236
  49   53    0    0    0
SMALL
NO_CHARGES


@<TRIPOS>ATOM
   1 C1            -0.0169     1.3972     0.0097 C.2     
   2 C2             0.0021    -0.0041     0.0020 C.2     
   3 C3             1.1986    -0.6593    -0.0129 C.2     
   4 C4             2.3918     0.0821    -0.0204 C.2     
   5 N5             2.3437     1.4497    -0.0122 N.am    
   6 C6             1.1421     2.0937     0.0024 C.2     
   7 C7             3.6227    -0.5889    -0.0356 C.2     
   8 C8             4.7877     0.1218    -0.0425 C.2     
   9 C9             4.7345     1.5280    -0.0346 C.2     
  10 C10            3.4812     2.1736    -0.0189 C.2     
  11 O11            3.4258     3.3917    -0.0123 O.2     
  12 C12            5.9703     2.3140    -0.0413 C.2     
  13 O13            5.9124     3.6618    -0.0337 O.3     
  14 O14            7.0487     1.7516    -0.0537 O.2     
  15 C15            3.6593    -2.0954    -0.0439 C.3     
  16 N16            3.7787    -2.5747    -1.4274 N.3     
  17 C17            4.0548    -4.0165    -1.4628 C.3     
  18 C18            4.0218    -4.5078    -2.9123 C.3     
  19 C19            5.0633    -3.7413    -3.7287 C.3     
  20 C20            4.7928    -2.2391    -3.6317 C.3     
  21 C21            4.8023    -1.8183    -2.1598 C.3     
  22 O22            6.3975    -4.0378    -3.2355 O.3     
  23 C23            7.1159    -4.5935    -4.2272 C.2     
  24 C24            6.2989    -4.7027    -5.4475 C.ar    
  25 C25            5.0285    -4.1841    -5.1648 C.ar    
  26 C26            6.5505    -5.1923    -6.7287 C.ar    
  27 N27            5.6074    -5.1641    -7.6485 N.ar    
  28 C28            4.4034    -4.6811    -7.4058 C.ar    
  29 C29            4.0752    -4.1756    -6.1579 C.ar    
  30 O30            8.2719    -4.9538    -4.1303 O.2     
  31 H31           -0.9605     1.9226     0.0170 H       
  32 H32           -0.9233    -0.5609     0.0082 H       
  33 H33            1.2282    -1.7389    -0.0187 H       
  34 H34            1.1156     3.1733     0.0087 H       
  35 H35            5.7393    -0.3889    -0.0536 H       
  36 H36            6.7544     4.1373    -0.0385 H       
  37 H37            4.5153    -2.4412     0.5356 H       
  38 H38            2.7412    -2.4836     0.3971 H       
  39 H39            5.0394    -4.2084    -1.0366 H       
  40 H40            3.2986    -4.5455    -0.8827 H       
  41 H41            4.2495    -5.5734    -2.9406 H       
  42 H42            3.0310    -4.3354    -3.3326 H       
  43 H43            5.5677    -1.6942    -4.1709 H       
  44 H44            3.8192    -2.0156    -4.0678 H       
  45 H45            4.5888    -0.7521    -2.0854 H       
  46 H46            5.7827    -2.0233    -1.7297 H       
  47 H47            7.5231    -5.5962    -6.9683 H       
  48 H48            3.6627    -4.6794    -8.1918 H       
  49 H49            3.0875    -3.7824    -5.9673 H       
@<TRIPOS>BOND
   1    1    2 1
   2    1    6 2
   3    1   31 1
   4    2    3 2
   5    2   32 1
   6    3    4 1
   7    3   33 1
   8    4    5 1
   9    4    7 2
  10    5    6 1
  11    5   10 am
  12    6   34 1
  13    7    8 1
  14    7   15 1
  15    8    9 2
  16    8   35 1
  17    9   10 1
  18    9   12 1
  19   10   11 2
  20   12   13 1
  21   12   14 2
  22   13   36 1
  23   15   16 1
  24   15   37 1
  25   15   38 1
  26   16   17 1
  27   16   21 1
  28   17   18 1
  29   17   39 1
  30   17   40 1
  31   18   19 1
  32   18   41 1
  33   18   42 1
  34   19   20 1
  35   19   22 1
  36   19   25 1
  37   20   21 1
  38   20   43 1
  39   20   44 1
  40   21   45 1
  41   21   46 1
  42   22   23 1
  43   23   24 1
  44   23   30 2
  45   24   25 ar
  46   24   26 ar
  47   25   29 ar
  48   26   27 ar
  49   26   47 1
  50   27   28 ar
  51   28   29 ar
  52   28   48 1
  53   29   49 1

#	End of record

