#	Name: ASD04880008
#	Creating user name:	WinNT
#	Creation time:	15. 06. 2019 20:52

#	Modifying user name:	WinNT
#	Modification time:	15. 06. 2019 20:52

#	Program:	/corina/corina34_cracker 3.40 0067  02.08.2006

@<TRIPOS>MOLECULE
ASD04880008
  35   37    0    0    0
SMALL
NO_CHARGES


@<TRIPOS>ATOM
   1 C1            -0.0144     1.2117     0.0087 C.2     
   2 O2             0.0627    -0.0015    -0.0136 O.2     
   3 C3             1.2153     2.0310    -0.0197 C.ar    
   4 C4             1.1299     3.4193    -0.1381 C.ar    
   5 C5             2.2836     4.1790    -0.1641 C.ar    
   6 C6             3.5226     3.5645    -0.0729 C.ar    
   7 C7             3.6118     2.1893     0.0441 C.ar    
   8 C8             2.4667     1.4203     0.0774 C.ar    
   9 F9             2.2040     5.5227    -0.2791 F       
  10 N10           -1.2215     1.8095     0.0538 N.am    
  11 N11           -1.4436     3.1778     0.1949 N.2     
  12 C12           -2.6881     3.5101     0.2110 C.2     
  13 C13           -3.5436     2.2717     0.0669 C.3     
  14 C14           -2.5202     1.1243    -0.0445 C.3     
  15 C15           -3.1997     4.8864     0.3493 C.ar    
  16 C16           -2.3103     5.9549     0.4761 C.ar    
  17 C17           -2.7992     7.2454     0.6058 C.ar    
  18 C18           -4.1710     7.4723     0.6092 C.ar    
  19 C19           -5.0519     6.4145     0.4836 C.ar    
  20 C20           -4.5760     5.1262     0.3481 C.ar    
  21 N21           -1.9135     8.3182     0.7335 N.pl3   
  22 H22            0.1645     3.8983    -0.2096 H       
  23 H23            4.4220     4.1619    -0.0936 H       
  24 H24            4.5803     1.7165     0.1144 H       
  25 H25            2.5386     0.3470     0.1736 H       
  26 H26           -4.1766     2.1401     0.9445 H       
  27 H27           -4.1492     2.3285    -0.8375 H       
  28 H28           -2.6140     0.6161    -1.0042 H       
  29 H29           -2.6454     0.4198     0.7777 H       
  30 H30           -1.2451     5.7766     0.4736 H       
  31 H31           -4.5497     8.4786     0.7106 H       
  32 H32           -6.1163     6.5974     0.4869 H       
  33 H33           -5.2676     4.3030     0.2458 H       
  34 H34           -0.9565     8.1600     0.7314 H       
  35 H35           -2.2556     9.2214     0.8242 H       
@<TRIPOS>BOND
   1    1    2 2
   2    1    3 1
   3    1   10 am
   4    3    4 ar
   5    3    8 ar
   6    4    5 ar
   7    4   22 1
   8    5    6 ar
   9    5    9 1
  10    6    7 ar
  11    6   23 1
  12    7    8 ar
  13    7   24 1
  14    8   25 1
  15   10   11 1
  16   10   14 1
  17   11   12 2
  18   12   13 1
  19   12   15 1
  20   13   14 1
  21   13   26 1
  22   13   27 1
  23   14   28 1
  24   14   29 1
  25   15   16 ar
  26   15   20 ar
  27   16   17 ar
  28   16   30 1
  29   17   18 ar
  30   17   21 1
  31   18   19 ar
  32   18   31 1
  33   19   20 ar
  34   19   32 1
  35   20   33 1
  36   21   34 1
  37   21   35 1

#	End of record

