#	Name: ASD01915560
#	Creating user name:	WinNT
#	Creation time:	15. 06. 2019 20:05

#	Modifying user name:	WinNT
#	Modification time:	15. 06. 2019 20:05

#	Program:	/corina/corina34_cracker 3.40 0067  02.08.2006

@<TRIPOS>MOLECULE
ASD01915560
  44   47    0    0    0
SMALL
NO_CHARGES


@<TRIPOS>ATOM
   1 C1            -0.0166     1.3728     0.0096 C.2     
   2 N2             0.0021    -0.0041     0.0020 N.pl3   
   3 C3            -1.2433    -0.7807    -0.0179 C.3     
   4 C4            -2.3411     0.0067     0.6955 C.3     
   5 N5            -2.4044     1.3988     0.2637 N.am    
   6 C6            -1.2813     2.1228     0.0392 C.2     
   7 C7             1.2845     1.7904    -0.0006 C.2     
   8 C8             2.0437     0.6124    -0.0024 C.2     
   9 N9             1.2133    -0.4042     0.0045 N.2     
  10 C10            3.5482     0.5278    -0.0114 C.3     
  11 O11            4.0995     1.8462    -0.0181 O.3     
  12 C12            5.4546     1.9483    -0.0267 C.ar    
  13 O13           -1.3171     3.3271    -0.1285 O.2     
  14 C14            6.0572     3.1978    -0.0334 C.ar    
  15 C15            6.2377     0.8031    -0.0229 C.ar    
  16 C16            7.6150     0.9096    -0.0317 C.ar    
  17 C17            8.2132     2.1561    -0.0442 C.ar    
  18 C18            7.4349     3.2990    -0.0422 C.ar    
  19 C19           -3.6531     1.9998     0.0772 C.ar    
  20 C20           -4.2742     1.9428    -1.1638 C.ar    
  21 C21           -5.5078     2.5372    -1.3462 C.ar    
  22 C22           -6.1251     3.1894    -0.2954 C.ar    
  23 C23           -5.5092     3.2487     0.9441 C.ar    
  24 C24           -4.2770     2.6500     1.1339 C.ar    
  25 F25           -6.1148     3.8873     1.9692 F       
  26 C26           -3.6025     1.2331    -2.3110 C.3     
  27 H27           -1.5404    -0.9656    -1.0502 H       
  28 H28           -1.0875    -1.7313     0.4922 H       
  29 H29           -3.3017    -0.4680     0.4955 H       
  30 H30           -2.1536    -0.0209     1.7689 H       
  31 H31            1.6485     2.8071    -0.0066 H       
  32 H32            3.8876    -0.0035     0.8778 H       
  33 H33            3.8767    -0.0079    -0.9021 H       
  34 H34            5.4498     4.0908    -0.0322 H       
  35 H35            5.7710    -0.1708    -0.0128 H       
  36 H36            8.2251     0.0184    -0.0285 H       
  37 H37            9.2901     2.2372    -0.0511 H       
  38 H38            7.9045     4.2715    -0.0524 H       
  39 H39           -5.9904     2.4926    -2.3113 H       
  40 H40           -7.0892     3.6538    -0.4410 H       
  41 H41           -3.7966     2.6957     2.1001 H       
  42 H42           -3.9028     0.1853    -2.3159 H       
  43 H43           -3.8982     1.7002    -3.2504 H       
  44 H44           -2.5206     1.3005    -2.1965 H       
@<TRIPOS>BOND
   1    1    2 1
   2    1    7 2
   3    1    6 1
   4    2    3 1
   5    2    9 1
   6    3    4 1
   7    3   27 1
   8    3   28 1
   9    4    5 1
  10    4   29 1
  11    4   30 1
  12    5    6 am
  13    5   19 1
  14    6   13 2
  15    7    8 1
  16    7   31 1
  17    8    9 2
  18    8   10 1
  19   10   11 1
  20   10   32 1
  21   10   33 1
  22   11   12 1
  23   12   14 ar
  24   12   15 ar
  25   14   18 ar
  26   14   34 1
  27   15   16 ar
  28   15   35 1
  29   16   17 ar
  30   16   36 1
  31   17   18 ar
  32   17   37 1
  33   18   38 1
  34   19   20 ar
  35   19   24 ar
  36   20   21 ar
  37   20   26 1
  38   21   22 ar
  39   21   39 1
  40   22   23 ar
  41   22   40 1
  42   23   24 ar
  43   23   25 1
  44   24   41 1
  45   26   42 1
  46   26   43 1
  47   26   44 1

#	End of record

