#	Name: ASD01880644
#	Creating user name:	WinNT
#	Creation time:	15. 06. 2019 19:41

#	Modifying user name:	WinNT
#	Modification time:	15. 06. 2019 19:41

#	Program:	/corina/corina34_cracker 3.40 0067  02.08.2006

@<TRIPOS>MOLECULE
ASD01880644
  41   43    0    0    0
SMALL
NO_CHARGES


@<TRIPOS>ATOM
   1 N1            -0.0158     1.3137     0.0093 N.ar    
   2 C2             0.0021    -0.0041     0.0020 C.ar    
   3 N3             1.1320    -0.6824    -0.0120 N.ar    
   4 C4             2.2982    -0.0569    -0.0197 C.ar    
   5 C5             2.3199     1.3289    -0.0130 C.ar    
   6 C6             1.1113     2.0071     0.0022 C.ar    
   7 C7             3.6263     2.0802    -0.0209 C.3     
   8 O8             4.0271     2.3244    -1.3706 O.3     
   9 C9             5.1918     2.9960    -1.5555 C.ar    
  10 C10            5.6407     3.2673    -2.8444 C.ar    
  11 C11            6.8188     3.9471    -3.0300 C.ar    
  12 C12            7.5728     4.3700    -1.9303 C.ar    
  13 C13            7.1172     4.0953    -0.6379 C.ar    
  14 C14            5.9322     3.4172    -0.4574 C.ar    
  15 C15            7.5715     4.3926    -4.2590 C.3     
  16 N16            8.7744     5.0801    -3.7758 N.am    
  17 C17            8.7712     5.0647    -2.4319 C.2     
  18 O18            9.6344     5.5549    -1.7298 O.2     
  19 C19           -1.3043    -0.7553     0.0105 C.3     
  20 C20           10.5303     7.7739    -5.7823 C.3     
  21 C21            9.4498     7.1437    -4.9012 C.3     
  22 C22            9.8090     5.6834    -4.6195 C.3     
  23 H23            3.2205    -0.6187    -0.0309 H       
  24 H24            1.0897     3.0869     0.0079 H       
  25 H25            3.5023     3.0302     0.4989 H       
  26 H26            4.3895     1.4872     0.4831 H       
  27 H27            5.0632     2.9431    -3.6975 H       
  28 H28            7.6920     4.4171     0.2179 H       
  29 H29            5.5805     3.2056     0.5416 H       
  30 H30            7.8504     3.5281    -4.8614 H       
  31 H31            6.9590     5.0771    -4.8459 H       
  32 H32           -1.6291    -0.9309    -1.0151 H       
  33 H33           -1.1707    -1.7107     0.5179 H       
  34 H34           -2.0580    -0.1677     0.5347 H       
  35 H35           11.4904     7.7285    -5.2683 H       
  36 H36           10.5958     7.2278    -6.7234 H       
  37 H37           10.2744     8.8142    -5.9830 H       
  38 H38            9.3843     7.6898    -3.9601 H       
  39 H39            8.4897     7.1891    -5.4152 H       
  40 H40           10.7691     5.6380    -4.1055 H       
  41 H41            9.8745     5.1374    -5.5606 H       
@<TRIPOS>BOND
   1    1    2 ar
   2    1    6 ar
   3    2    3 ar
   4    2   19 1
   5    3    4 ar
   6    4    5 ar
   7    4   23 1
   8    5    6 ar
   9    5    7 1
  10    6   24 1
  11    7    8 1
  12    7   25 1
  13    7   26 1
  14    8    9 1
  15    9   10 ar
  16    9   14 ar
  17   10   11 ar
  18   10   27 1
  19   11   12 ar
  20   11   15 1
  21   12   13 ar
  22   12   17 1
  23   13   14 ar
  24   13   28 1
  25   14   29 1
  26   15   16 1
  27   15   30 1
  28   15   31 1
  29   16   17 am
  30   16   22 1
  31   17   18 2
  32   19   32 1
  33   19   33 1
  34   19   34 1
  35   20   21 1
  36   20   35 1
  37   20   36 1
  38   20   37 1
  39   21   22 1
  40   21   38 1
  41   21   39 1
  42   22   40 1
  43   22   41 1

#	End of record

