#	Name: ASD01028047
#	Creating user name:	WinNT
#	Creation time:	15. 06. 2019 18:56

#	Modifying user name:	WinNT
#	Modification time:	15. 06. 2019 18:56

#	Program:	/corina/corina34_cracker 3.40 0067  02.08.2006

@<TRIPOS>MOLECULE
ASD01028047
  77   82    0    0    0
SMALL
NO_CHARGES


@<TRIPOS>ATOM
   1 C1            -0.0187     1.5248     0.0104 C.3     
   2 C2             0.0021    -0.0041     0.0020 C.3     
   3 C3             1.4430     3.4934     0.5172 C.3     
   4 C4             1.4177     2.0546    -0.0004 C.3     
   5 N5             2.9648     3.9448     2.3857 N.3     
   6 N6             1.5640     1.0328     4.5624 N.pl3   
   7 C7             2.4609     1.8511     5.2311 C.ar    
   8 C8             3.2671     2.6816     4.4589 C.ar    
   9 C9             3.1619     2.6108     2.9583 C.3     
  10 C10            2.5745     1.8704     6.6178 C.ar    
  11 C11            3.4793     2.7332     7.2217 C.ar    
  12 C12            4.2645     3.5748     6.4416 C.ar    
  13 C13            4.1533     3.5442     5.0644 C.ar    
  14 O14           -1.1345    -0.5184     0.6999 O.3     
  15 C15           -0.9189    -1.0178     1.9463 C.ar    
  16 C16           -0.1286    -0.3083     2.8081 C.ar    
  17 C17            0.1136    -0.8076     4.0927 C.ar    
  18 C18            0.9621    -0.1104     4.9998 C.ar    
  19 N19            1.1317    -0.6265     6.2064 N.ar    
  20 O20            1.9269     1.1590     7.5824 O.3     
  21 C21            2.5078     1.5108     8.8427 C.3     
  22 O22            3.4226     2.5781     8.5737 O.3     
  23 C23           -1.4946    -2.2325     2.3427 C.ar    
  24 C24           -1.2803    -2.7344     3.6096 C.ar    
  25 C25           -0.4717    -2.0256     4.5079 C.ar    
  26 N26           -0.2228    -2.4592     5.7537 N.ar    
  27 C27            0.5511    -1.7654     6.5558 C.ar    
  28 O28           -2.2720    -2.9238     1.4691 O.3     
  29 C29           -2.8306    -4.1551     1.9318 C.3     
  30 C30           -3.6692    -4.7850     0.8179 C.3     
  31 C31           -4.2673    -6.1033     1.3132 C.3     
  32 N32           -5.0725    -6.7082     0.2437 N.3     
  33 C33            2.8691     3.8746     0.9195 C.3     
  34 Br34           5.4843     4.7620     7.2653 Br      
  35 C35           -5.4673    -8.0799     0.5934 C.3     
  36 C36           -4.3526    -6.6808    -1.0371 C.3     
  37 C37           -5.2536    -7.2457    -2.1378 C.3     
  38 N38           -5.6484    -8.6174    -1.7882 N.3     
  39 C39           -6.3683    -8.6448    -0.5073 C.3     
  40 C40           -6.4536    -9.2222    -2.8577 C.3     
  41 H41           -0.5458     1.8859    -0.8726 H       
  42 H42           -0.5288     1.8763     0.9072 H       
  43 H43           -0.0156    -0.3596    -1.0282 H       
  44 H44            0.9128    -0.3554     0.4870 H       
  45 H45            1.0954     4.1666    -0.2665 H       
  46 H46            0.7872     3.5784     1.3836 H       
  47 H47            2.0397     1.4285     0.6391 H       
  48 H48            1.8057     2.0290    -1.0187 H       
  49 H49            2.1503     4.3909     2.7803 H       
  50 H50            1.3330     1.3107     3.6623 H       
  51 H51            2.3179     1.9763     2.6877 H       
  52 H52            4.0778     2.1793     2.5547 H       
  53 H53            4.7638     4.1994     4.4607 H       
  54 H54            0.3054     0.6312     2.4993 H       
  55 H55            1.7331     1.8455     9.5325 H       
  56 H56            3.0402     0.6569     9.2617 H       
  57 H57           -1.7339    -3.6681     3.9077 H       
  58 H58            0.7247    -2.1434     7.5525 H       
  59 H59           -2.0270    -4.8364     2.2111 H       
  60 H60           -3.4629    -3.9641     2.7989 H       
  61 H61           -4.4729    -4.1037     0.5385 H       
  62 H62           -3.0370    -4.9760    -0.0492 H       
  63 H63           -3.4636    -6.7846     1.5926 H       
  64 H64           -4.8996    -5.9124     2.1803 H       
  65 H65            3.5648     3.1234     0.5457 H       
  66 H66            3.1195     4.8456     0.4923 H       
  67 H67           -4.5769    -8.7013     0.6892 H       
  68 H68           -6.0094    -8.0724     1.5390 H       
  69 H69           -4.0821    -5.6532    -1.2803 H       
  70 H70           -3.4496    -7.2863    -0.9598 H       
  71 H71           -6.1439    -6.6243    -2.2337 H       
  72 H72           -4.7114    -7.2532    -3.0834 H       
  73 H73           -6.6388    -9.6723    -0.2641 H       
  74 H74           -7.2713    -8.0393    -0.5846 H       
  75 H75           -5.8718    -9.2501    -3.7790 H       
  76 H76           -6.7322   -10.2369    -2.5731 H       
  77 H77           -7.3542    -8.6286    -3.0145 H       
@<TRIPOS>BOND
   1    1    2 1
   2    1    4 1
   3    1   41 1
   4    1   42 1
   5    2   14 1
   6    2   43 1
   7    2   44 1
   8    3    4 1
   9    3   33 1
  10    3   45 1
  11    3   46 1
  12    4   47 1
  13    4   48 1
  14    5   33 1
  15    5    9 1
  16    5   49 1
  17    6    7 1
  18    6   18 1
  19    6   50 1
  20    7    8 ar
  21    7   10 ar
  22    8    9 1
  23    8   13 ar
  24    9   51 1
  25    9   52 1
  26   10   11 ar
  27   10   20 1
  28   11   12 ar
  29   11   22 1
  30   12   13 ar
  31   12   34 1
  32   13   53 1
  33   14   15 1
  34   15   16 ar
  35   15   23 ar
  36   16   17 ar
  37   16   54 1
  38   17   18 ar
  39   17   25 ar
  40   18   19 ar
  41   19   27 ar
  42   20   21 1
  43   21   22 1
  44   21   55 1
  45   21   56 1
  46   23   24 ar
  47   23   28 1
  48   24   25 ar
  49   24   57 1
  50   25   26 ar
  51   26   27 ar
  52   27   58 1
  53   28   29 1
  54   29   30 1
  55   29   59 1
  56   29   60 1
  57   30   31 1
  58   30   61 1
  59   30   62 1
  60   31   32 1
  61   31   63 1
  62   31   64 1
  63   32   35 1
  64   32   36 1
  65   33   65 1
  66   33   66 1
  67   35   39 1
  68   35   67 1
  69   35   68 1
  70   36   37 1
  71   36   69 1
  72   36   70 1
  73   37   38 1
  74   37   71 1
  75   37   72 1
  76   38   39 1
  77   38   40 1
  78   39   73 1
  79   39   74 1
  80   40   75 1
  81   40   76 1
  82   40   77 1

#	End of record

