#	Name: ASD07140001
#	Creating user name:	WinNT
#	Creation time:	15. 06. 2019 21:09

#	Modifying user name:	WinNT
#	Modification time:	15. 06. 2019 21:09

#	Program:	/corina/corina34_cracker 3.40 0067  02.08.2006

@<TRIPOS>MOLECULE
ASD07140001
  13   13    0    0    0
SMALL
NO_CHARGES


@<TRIPOS>ATOM
   1 C1            -0.0158     1.3113     0.0093 C.2     
   2 C2             0.0021    -0.0041     0.0020 C.2     
   3 N3             1.2070    -0.6939    -0.0198 N.pl3   
   4 C4             2.3704    -0.0374    -0.3988 C.2     
   5 C5             2.4257     1.2770    -0.4036 C.2     
   6 C6             1.2501     2.1185     0.0015 C.3     
   7 H7            -0.9662     1.8242     0.0165 H       
   8 H8            -0.9284    -0.5522     0.0135 H       
   9 H9             1.2360    -1.6309     0.2292 H       
  10 H10            3.2374    -0.6107    -0.6920 H       
  11 H11            3.3409     1.7636    -0.7068 H       
  12 H12            1.1434     2.9453    -0.7007 H       
  13 H13            1.4243     2.5189     1.0002 H       
@<TRIPOS>BOND
   1    1    2 2
   2    1    6 1
   3    1    7 1
   4    2    3 1
   5    2    8 1
   6    3    4 1
   7    3    9 1
   8    4    5 2
   9    4   10 1
  10    5    6 1
  11    5   11 1
  12    6   12 1
  13    6   13 1

#	End of record

