#	Name: ASD08150439
#	Creating user name:	WinNT
#	Creation time:	15. 06. 2019 21:16

#	Modifying user name:	WinNT
#	Modification time:	15. 06. 2019 21:16

#	Program:	/corina/corina34_cracker 3.40 0067  02.08.2006

@<TRIPOS>MOLECULE
ASD08150439
  62   67    0    0    0
SMALL
NO_CHARGES


@<TRIPOS>ATOM
   1 N1            -0.0179     1.4659     0.0101 N.3     
   2 C2             0.0021    -0.0041     0.0020 C.3     
   3 C3             0.7497    -0.4921    -1.2417 C.3     
   4 O4             2.0659     0.0673    -1.2506 O.3     
   5 C5             2.0838     1.4973    -1.2437 C.3     
   6 C6             1.3496     2.0055    -0.0001 C.3     
   7 C7            -1.9774     1.5644     3.0012 C.ar    
   8 N8            -2.1397     2.8529     3.2286 N.ar    
   9 C9            -1.6077     3.7781     2.4015 C.ar    
  10 C10           -0.8791     3.3314     1.2961 C.ar    
  11 C11           -0.7333     1.9468     1.0947 C.ar    
  12 N12           -1.2895     1.1090     1.9580 N.ar    
  13 C13           -1.6633     5.2236     2.4642 C.2     
  14 C14           -1.0285     5.8476     1.4856 C.2     
  15 S15           -0.2903     4.7074     0.3763 S.3     
  16 C16           -0.9504     7.3458     1.3421 C.3     
  17 N17            0.2332     7.8449     2.0547 N.3     
  18 C18            0.4769     9.2599     1.7441 C.3     
  19 C19            1.6022     9.7895     2.6393 C.3     
  20 N20            2.7714     8.9097     2.4898 N.am    
  21 C21            2.5771     7.4608     2.6513 C.3     
  22 C22            1.4134     7.0229     1.7556 C.3     
  23 S23            4.2667     9.5339     2.1482 S.o2    
  24 O24            4.9468     8.4741     1.4899 O.2     
  25 O25            3.9914    10.7561     1.4776 O.2     
  26 C26            5.0064     9.8523     3.7737 C.3     
  27 N27           -4.5116     0.8203     6.9232 N.pl3   
  28 N28           -4.3436     2.1820     6.6432 N.2     
  29 C29           -3.6404     2.3234     5.5564 C.2     
  30 C30           -3.3074     1.0420     5.0626 C.ar    
  31 C31           -2.5764     0.5911     3.9428 C.ar    
  32 C32           -2.4239    -0.7709     3.7310 C.ar    
  33 C33           -2.9844    -1.6848     4.6105 C.ar    
  34 C34           -3.7005    -1.2588     5.7069 C.ar    
  35 C35           -3.8703     0.1029     5.9453 C.ar    
  36 H36            0.5087    -0.3661     0.8967 H       
  37 H37           -1.0202    -0.3818    -0.0162 H       
  38 H38            0.8167    -1.5799    -1.2226 H       
  39 H39            0.2136    -0.1754    -2.1363 H       
  40 H40            3.1155     1.8483    -1.2262 H       
  41 H41            1.5864     1.8718    -2.1384 H       
  42 H42            1.3110     3.0946    -0.0198 H       
  43 H43            1.8778     1.6756     0.8946 H       
  44 H44           -2.1835     5.7518     3.2495 H       
  45 H45           -0.8755     7.6062     0.2863 H       
  46 H46           -1.8470     7.7985     1.7652 H       
  47 H47            0.7675     9.3579     0.6981 H       
  48 H48           -0.4321     9.8337     1.9247 H       
  49 H49            1.8653    10.8028     2.3359 H       
  50 H50            1.2742     9.7890     3.6788 H       
  51 H51            3.4847     6.9345     2.3558 H       
  52 H52            2.3427     7.2365     3.6919 H       
  53 H53            1.1836     5.9742     1.9446 H       
  54 H54            1.6910     7.1520     0.7095 H       
  55 H55            5.0731     8.9184     4.3317 H       
  56 H56            6.0048    10.2696     3.6431 H       
  57 H57            4.3857    10.5602     4.3229 H       
  58 H58           -4.9935     0.4492     7.6788 H       
  59 H59           -3.3587     3.2641     5.1068 H       
  60 H60           -1.8655    -1.1220     2.8758 H       
  61 H61           -2.8582    -2.7426     4.4334 H       
  62 H62           -4.1317    -1.9822     6.3831 H       
@<TRIPOS>BOND
   1    1    2 1
   2    1    6 1
   3    1   11 1
   4    2    3 1
   5    2   36 1
   6    2   37 1
   7    3    4 1
   8    3   38 1
   9    3   39 1
  10    4    5 1
  11    5    6 1
  12    5   40 1
  13    5   41 1
  14    6   42 1
  15    6   43 1
  16    7    8 ar
  17    7   12 ar
  18    7   31 1
  19    8    9 ar
  20    9   10 ar
  21    9   13 1
  22   10   11 ar
  23   10   15 1
  24   11   12 ar
  25   13   14 2
  26   13   44 1
  27   14   15 1
  28   14   16 1
  29   16   17 1
  30   16   45 1
  31   16   46 1
  32   17   18 1
  33   17   22 1
  34   18   19 1
  35   18   47 1
  36   18   48 1
  37   19   20 1
  38   19   49 1
  39   19   50 1
  40   20   21 1
  41   20   23 am
  42   21   22 1
  43   21   51 1
  44   21   52 1
  45   22   53 1
  46   22   54 1
  47   23   24 2
  48   23   25 2
  49   23   26 1
  50   26   55 1
  51   26   56 1
  52   26   57 1
  53   27   28 1
  54   27   35 1
  55   27   58 1
  56   28   29 2
  57   29   30 1
  58   29   59 1
  59   30   31 ar
  60   30   35 ar
  61   31   32 ar
  62   32   33 ar
  63   32   60 1
  64   33   34 ar
  65   33   61 1
  66   34   35 ar
  67   34   62 1

#	End of record

