#	Name: ASD02030523
#	Creating user name:	WinNT
#	Creation time:	15. 06. 2019 20:15

#	Modifying user name:	WinNT
#	Modification time:	15. 06. 2019 20:15

#	Program:	/corina/corina34_cracker 3.40 0067  02.08.2006

@<TRIPOS>MOLECULE
ASD02030523
  58   62    0    0    0
SMALL
NO_CHARGES


@<TRIPOS>ATOM
   1 N1            -0.2509     1.2169     0.6238 N.am    
   2 C2            -0.5318    -0.2257     0.6266 C.3     
   3 C3            -1.6023    -0.5144     1.6863 C.3     
   4 N4            -2.7172     0.4239     1.4954 N.am    
   5 C5            -2.4363     1.8665     1.4926 C.3     
   6 C6            -1.3666     2.1553     0.4385 C.3     
   7 C7             1.0066     1.6711     0.7937 C.2     
   8 C8             2.0977     0.7253     1.1105 C.2     
   9 N9             3.3353     1.0472     1.4196 N.2     
  10 N10            1.9986    -0.6164     1.1394 N.2     
  11 C11            3.1770    -1.0867     1.4601 C.2     
  12 N12            4.0028    -0.0342     1.6323 N.pl3   
  13 O13            1.2435     2.8586     0.6864 O.2     
  14 C14           -3.9747    -0.0303     1.3255 C.2     
  15 C15           -4.2268    -1.4785     1.2173 C.2     
  16 O16           -4.9013     0.7546     1.2615 O.2     
  17 C17           -0.8634     3.5914     0.5977 C.3     
  18 C18           -1.9592     1.9672    -0.9595 C.3     
  19 C19            5.3578    -0.1049     1.9830 C.ar    
  20 C20            6.0998     1.0590     2.1294 C.ar    
  21 C21            7.4363     0.9858     2.4759 C.ar    
  22 C22            8.0336    -0.2463     2.6759 C.ar    
  23 C23            7.2960    -1.4069     2.5304 C.ar    
  24 C24            5.9593    -1.3395     2.1901 C.ar    
  25 N25           -3.3491    -2.4458     1.3763 N.2     
  26 Cl26           8.3657     2.4405     2.6595 Cl      
  27 N27           -3.8780    -3.6049     1.2181 N.pl3   
  28 C28           -5.2135    -3.5061     0.9271 C.ar    
  29 C29           -5.5090    -2.1288     0.9169 C.ar    
  30 C30           -6.2298    -4.4208     0.6702 C.ar    
  31 C31           -7.4946    -3.9743     0.4072 C.ar    
  32 C32           -7.7827    -2.6156     0.3923 C.ar    
  33 C33           -6.8041    -1.6955     0.6475 C.ar    
  34 C34           -3.1479    -4.8698     1.3334 C.3     
  35 H35           -0.8971    -0.5292    -0.3545 H       
  36 H36            0.3784    -0.7752     0.8669 H       
  37 H37           -1.9618    -1.5373     1.5740 H       
  38 H38           -1.1777    -0.3804     2.6812 H       
  39 H39           -3.3464     2.4160     1.2523 H       
  40 H40           -2.0710     2.1700     2.4737 H       
  41 H41            3.4398    -2.1284     1.5701 H       
  42 H42           -0.3400     3.6897     1.5488 H       
  43 H43           -0.1816     3.8301    -0.2185 H       
  44 H44           -1.7100     4.2776     0.5763 H       
  45 H45           -2.7955     2.6531    -1.0949 H       
  46 H46           -1.1951     2.1737    -1.7089 H       
  47 H47           -2.3093     0.9410    -1.0706 H       
  48 H48            5.6338     2.0206     1.9726 H       
  49 H49            9.0779    -0.3015     2.9458 H       
  50 H50            7.7650    -2.3671     2.6868 H       
  51 H51            5.3841    -2.2465     2.0771 H       
  52 H52           -6.0200    -5.4802     0.6782 H       
  53 H53           -8.2807    -4.6877     0.2079 H       
  54 H54           -8.7886    -2.2835     0.1819 H       
  55 H55           -7.0331    -0.6402     0.6351 H       
  56 H56           -3.1881    -5.2198     2.3649 H       
  57 H57           -3.6037    -5.6132     0.6794 H       
  58 H58           -2.1088    -4.7174     1.0416 H       
@<TRIPOS>BOND
   1    1    2 1
   2    1    7 am
   3    1    6 1
   4    2    3 1
   5    2   35 1
   6    2   36 1
   7    3    4 1
   8    3   37 1
   9    3   38 1
  10    4    5 1
  11    4   14 am
  12    5    6 1
  13    5   39 1
  14    5   40 1
  15    6   17 1
  16    6   18 1
  17    7    8 1
  18    7   13 2
  19    8    9 2
  20    8   10 1
  21    9   12 1
  22   10   11 2
  23   11   12 1
  24   11   41 1
  25   12   19 1
  26   14   15 1
  27   14   16 2
  28   15   25 2
  29   15   29 1
  30   17   42 1
  31   17   43 1
  32   17   44 1
  33   18   45 1
  34   18   46 1
  35   18   47 1
  36   19   20 ar
  37   19   24 ar
  38   20   21 ar
  39   20   48 1
  40   21   22 ar
  41   21   26 1
  42   22   23 ar
  43   22   49 1
  44   23   24 ar
  45   23   50 1
  46   24   51 1
  47   25   27 1
  48   27   28 1
  49   27   34 1
  50   28   29 ar
  51   28   30 ar
  52   29   33 ar
  53   30   31 ar
  54   30   52 1
  55   31   32 ar
  56   31   53 1
  57   32   33 ar
  58   32   54 1
  59   33   55 1
  60   34   56 1
  61   34   57 1
  62   34   58 1

#	End of record

