#	Name: ASD01410698
#	Creating user name:	WinNT
#	Creation time:	15. 06. 2019 19:18

#	Modifying user name:	WinNT
#	Modification time:	15. 06. 2019 19:18

#	Program:	/corina/corina34_cracker 3.40 0067  02.08.2006

@<TRIPOS>MOLECULE
ASD01410698
  81   87    0    0    0
SMALL
NO_CHARGES


@<TRIPOS>ATOM
   1 N1            -0.2399     1.7588    -0.1029 N.am    
   2 C2            -0.9828     4.2649    -1.8630 C.2     
   3 N3             0.2437     3.6779    -4.7941 N.am    
   4 S4            -0.3155     0.1004    -0.1183 S.o2    
   5 O5            -1.6002    -0.2450    -0.6177 O.2     
   6 N6             0.7936    -0.3818    -1.2718 N.am    
   7 O7             0.1812    -0.3425     1.1373 O.2     
   8 C8             0.6356    -1.6476    -1.7879 C.2     
   9 O9             0.1321    -2.5519    -1.1495 O.2     
  10 C10            1.1193    -1.8314    -3.1701 C.ar    
  11 C11            1.2767    -3.0891    -3.7480 C.ar    
  12 C12            1.6159    -3.2303    -5.0709 C.ar    
  13 C13            1.7703    -2.0582    -5.8289 C.ar    
  14 C14            1.7317    -0.7713    -5.2241 C.ar    
  15 C15            1.4019    -0.6478    -3.8867 C.ar    
  16 C16            1.9280    -1.8418    -7.2047 C.2     
  17 C17            2.0300    -0.5032    -7.4225 C.2     
  18 N18            2.0309     0.1411    -6.1985 N.pl3   
  19 C19            1.9771    -2.9123    -8.2643 C.3     
  20 C20            3.2810    -3.7017    -8.1317 C.3     
  21 C21            0.7879    -3.8587    -8.0886 C.3     
  22 C22            0.8377    -4.9456    -9.1643 C.3     
  23 C23            2.1417    -5.7349    -9.0317 C.3     
  24 C24            3.3309    -4.7885    -9.2074 C.3     
  25 C25            2.1205     0.1472    -8.7444 C.ar    
  26 C26            1.6507     1.4085    -9.0522 C.ar    
  27 C27            0.9293     2.3134    -8.0946 C.3     
  28 C28            1.2705     2.4255    -6.6381 C.3     
  29 C29            2.3694     1.5576    -6.0216 C.3     
  30 C30            1.0302     3.7321    -5.9130 C.2     
  31 O31            1.5108     4.7748    -6.3036 O.2     
  32 C32            2.7375    -0.6214    -9.7536 C.ar    
  33 C33            2.8882    -0.1261   -11.0245 C.ar    
  34 C34            2.4308     1.1503   -11.3260 C.ar    
  35 C35            1.8178     1.9051   -10.3421 C.ar    
  36 O36            2.5846     1.6541   -12.5782 O.3     
  37 C37            3.2275     0.8156   -13.5403 C.3     
  38 C38           -1.2057     4.8689    -3.2303 C.3     
  39 C39            0.1082     4.9229    -4.0115 C.3     
  40 C40           -1.6389     3.1851    -1.5117 C.2     
  41 C41           -1.4541     2.5668    -0.1533 C.3     
  42 C42            1.0650     2.4210    -0.0318 C.3     
  43 C43           -0.0029     1.6769    -7.0728 C.3     
  44 H44           -0.2848     4.7182    -1.1792 H       
  45 H45           -0.2042     2.8598    -4.5278 H       
  46 H46            1.5121     0.2012    -1.5630 H       
  47 H47            1.1293    -3.9713    -3.1428 H       
  48 H48            1.7589    -4.2057    -5.5118 H       
  49 H49            1.3619     0.3192    -3.4075 H       
  50 H50            1.9310    -2.4500    -9.2503 H       
  51 H51            4.1283    -3.0274    -8.2568 H       
  52 H52            3.3272    -4.1640    -7.1457 H       
  53 H53            0.8340    -4.3211    -7.1026 H       
  54 H54           -0.1411    -3.2964    -8.1830 H       
  55 H55           -0.0095    -5.6198    -9.0392 H       
  56 H56            0.7916    -4.4832   -10.1503 H       
  57 H57            2.1878    -6.1973    -8.0457 H       
  58 H58            2.1772    -6.5092    -9.7981 H       
  59 H59            3.2847    -4.3262   -10.1934 H       
  60 H60            4.2598    -5.3509    -9.1129 H       
  61 H61            0.5412     3.2206    -8.5702 H       
  62 H62            2.4551     1.7808    -4.9582 H       
  63 H63            3.3186     1.7688    -6.5141 H       
  64 H64            3.0967    -1.6134    -9.5227 H       
  65 H65            3.3612    -0.7265   -11.7876 H       
  66 H66            1.4626     2.8972   -10.5788 H       
  67 H67            3.2860     1.3373   -14.4956 H       
  68 H68            4.2330     0.5729   -13.1967 H       
  69 H69            2.6538    -0.1031   -13.6626 H       
  70 H70           -1.9242     4.2615    -3.7806 H       
  71 H71           -1.6004     5.8788    -3.1190 H       
  72 H72            0.9435     5.0110    -3.3168 H       
  73 H73            0.0980     5.7794    -4.6856 H       
  74 H74           -2.3187     2.7307    -2.2211 H       
  75 H75           -2.3134     1.9351     0.0718 H       
  76 H76           -1.3881     3.3581     0.5935 H       
  77 H77            1.8528     1.6685     0.0032 H       
  78 H78            1.2019     3.0497    -0.9116 H       
  79 H79            1.1111     3.0374     0.8660 H       
  80 H80           -0.9618     2.1625    -6.8915 H       
  81 H81           -0.0017     0.5897    -6.9953 H       
@<TRIPOS>BOND
   1    1    4 am
   2    1   42 1
   3    1   41 1
   4    2   38 1
   5    2   40 2
   6    2   44 1
   7    3   30 am
   8    3   39 1
   9    3   45 1
  10    4    5 2
  11    4    6 am
  12    4    7 2
  13    6    8 am
  14    6   46 1
  15    8    9 2
  16    8   10 1
  17   10   11 ar
  18   10   15 ar
  19   11   12 ar
  20   11   47 1
  21   12   13 ar
  22   12   48 1
  23   13   14 ar
  24   13   16 1
  25   14   15 ar
  26   14   18 1
  27   15   49 1
  28   16   17 2
  29   16   19 1
  30   17   18 1
  31   17   25 1
  32   18   29 1
  33   19   20 1
  34   19   21 1
  35   19   50 1
  36   20   24 1
  37   20   51 1
  38   20   52 1
  39   21   22 1
  40   21   53 1
  41   21   54 1
  42   22   23 1
  43   22   55 1
  44   22   56 1
  45   23   24 1
  46   23   57 1
  47   23   58 1
  48   24   59 1
  49   24   60 1
  50   25   26 ar
  51   25   32 ar
  52   26   27 1
  53   26   35 ar
  54   27   28 1
  55   27   43 1
  56   27   61 1
  57   28   29 1
  58   28   30 1
  59   28   43 1
  60   29   62 1
  61   29   63 1
  62   30   31 2
  63   32   33 ar
  64   32   64 1
  65   33   34 ar
  66   33   65 1
  67   34   35 ar
  68   34   36 1
  69   35   66 1
  70   36   37 1
  71   37   67 1
  72   37   68 1
  73   37   69 1
  74   38   39 1
  75   38   70 1
  76   38   71 1
  77   39   72 1
  78   39   73 1
  79   40   41 1
  80   40   74 1
  81   41   75 1
  82   41   76 1
  83   42   77 1
  84   42   78 1
  85   42   79 1
  86   43   80 1
  87   43   81 1

#	End of record

