#	Name: ASD07932102
#	Creating user name:	WinNT
#	Creation time:	15. 06. 2019 21:14

#	Modifying user name:	WinNT
#	Modification time:	15. 06. 2019 21:14

#	Program:	/corina/corina34_cracker 3.40 0067  02.08.2006

@<TRIPOS>MOLECULE
ASD07932102
  44   46    0    0    0
SMALL
NO_CHARGES


@<TRIPOS>ATOM
   1 Cl1          -10.6614     4.0012     0.7207 Cl      
   2 N2            -0.0071     1.4420     0.1902 N.pl3   
   3 C3             0.0028    -0.0167     0.0385 C.3     
   4 C4             0.8011    -0.6400     1.1918 C.3     
   5 S5             2.4678     0.0925     1.1940 S.o2    
   6 N6             2.1504     1.7269     1.1278 N.am    
   7 C7             1.1839     2.1382     0.2210 C.2     
   8 C8             2.8568     2.6825     1.9846 C.3     
   9 N9             1.3942     3.1483    -0.5754 N.2     
  10 O10            3.1008    -0.0981     2.4519 O.2     
  11 O11            3.1444    -0.1899    -0.0232 O.2     
  12 C12           -1.4119    -0.5353     0.0678 C.ar    
  13 C13            0.6564    -0.3874    -1.2943 C.3     
  14 C14           -2.4665     0.3449     0.2079 C.ar    
  15 C15           -3.7703    -0.1338     0.2344 C.ar    
  16 C16           -4.0092    -1.4970     0.1197 C.ar    
  17 C17           -2.9506    -2.3730    -0.0204 C.ar    
  18 C18           -1.6532    -1.8930    -0.0517 C.ar    
  19 N19           -4.8403     0.7555     0.3767 N.am    
  20 C20           -6.0104     0.5067    -0.2442 C.2     
  21 O21           -6.1070    -0.4376    -1.0025 O.2     
  22 C22           -7.1810     1.3865    -0.0015 C.ar    
  23 N23           -8.3233     1.1268    -0.6205 N.ar    
  24 Cl24          -0.3250    -2.9969    -0.2277 Cl      
  25 C25           -9.3850     1.8884    -0.4276 C.ar    
  26 C26           -9.2923     2.9723     0.4368 C.ar    
  27 C27           -8.0785     3.2142     1.0685 C.ar    
  28 N28           -7.0589     2.4084     0.8329 N.ar    
  29 H29           -0.8496     1.9170     0.2647 H       
  30 H30            0.3052    -0.4277     2.1389 H       
  31 H31            0.8738    -1.7180     1.0480 H       
  32 H32            3.7558     3.0308     1.4762 H       
  33 H33            2.2064     3.5315     2.1952 H       
  34 H34            3.1337     2.1961     2.9200 H       
  35 H35            2.2376     3.6262    -0.5404 H       
  36 H36            1.6800    -0.0135    -1.3134 H       
  37 H37            0.6634    -1.4716    -1.4064 H       
  38 H38            0.0913     0.0588    -2.1126 H       
  39 H39           -2.2778     1.4045     0.2973 H       
  40 H40           -5.0219    -1.8719     0.1403 H       
  41 H41           -3.1358    -3.4333    -0.1092 H       
  42 H42           -4.7403     1.5512     0.9223 H       
  43 H43          -10.3131     1.6716    -0.9355 H       
  44 H44           -7.9713     4.0479     1.7466 H       
@<TRIPOS>BOND
   1    1   26 1
   2    2    3 1
   3    2    7 1
   4    2   29 1
   5    3    4 1
   6    3   12 1
   7    3   13 1
   8    4    5 1
   9    4   30 1
  10    4   31 1
  11    5    6 am
  12    5   10 2
  13    5   11 2
  14    6    7 1
  15    6    8 1
  16    7    9 2
  17    8   32 1
  18    8   33 1
  19    8   34 1
  20    9   35 1
  21   12   14 ar
  22   12   18 ar
  23   13   36 1
  24   13   37 1
  25   13   38 1
  26   14   15 ar
  27   14   39 1
  28   15   16 ar
  29   15   19 1
  30   16   17 ar
  31   16   40 1
  32   17   18 ar
  33   17   41 1
  34   18   24 1
  35   19   20 am
  36   19   42 1
  37   20   21 2
  38   20   22 1
  39   22   23 ar
  40   22   28 ar
  41   23   25 ar
  42   25   26 ar
  43   25   43 1
  44   26   27 ar
  45   27   28 ar
  46   27   44 1

#	End of record

