#	Name: ASD01913509
#	Creating user name:	WinNT
#	Creation time:	15. 06. 2019 20:01

#	Modifying user name:	WinNT
#	Modification time:	15. 06. 2019 20:01

#	Program:	/corina/corina34_cracker 3.40 0067  02.08.2006

@<TRIPOS>MOLECULE
ASD01913509
  39   41    0    0    0
SMALL
NO_CHARGES


@<TRIPOS>ATOM
   1 C1            -1.5064     1.4691    -0.5891 C.ar    
   2 C2            -1.3513     0.0933    -0.7414 C.ar    
   3 C3            -0.7268    -0.3761    -1.8945 C.ar    
   4 N4            -0.3066     0.4953    -2.7964 N.ar    
   5 C5            -0.4723     1.7901    -2.6150 C.ar    
   6 N6            -1.0581     2.2740    -1.5381 N.ar    
   7 C7            -1.6676    -2.1708     0.0542 C.ar    
   8 C8            -0.4075    -2.7565     0.0663 C.ar    
   9 N9            -0.2654    -4.0562    -0.1008 N.ar    
  10 C10           -1.3001    -4.8515    -0.2846 C.ar    
  11 C11           -2.5933    -4.3433    -0.3098 C.ar    
  12 C12           -2.7865    -2.9765    -0.1372 C.ar    
  13 N13           -3.6858    -5.1945    -0.5059 N.am    
  14 C14           -4.7774    -4.7501    -1.1597 C.2     
  15 N15           -1.8100    -0.7929     0.2373 N.pl3   
  16 C16           -5.9710    -5.6142    -1.2777 C.ar    
  17 O17           -4.7805    -3.6388    -1.6523 O.2     
  18 C18           -5.9692    -6.8914    -0.7123 C.ar    
  19 C19           -7.0833    -7.7001    -0.8214 C.ar    
  20 C20           -8.2059    -7.2529    -1.4888 C.ar    
  21 C21           -8.2218    -5.9771    -2.0590 C.ar    
  22 C22           -7.1026    -5.1542    -1.9483 C.ar    
  23 C23           -9.3868    -5.5148    -2.7515 C.1     
  24 C24           -2.4401    -0.2770     1.4552 C.3     
  25 N25          -10.3111    -5.1481    -3.3008 N.1     
  26 H26           -1.9894     1.8724     0.2886 H       
  27 H27           -0.5873    -1.4358    -2.0496 H       
  28 H28           -0.1176     2.4749    -3.3711 H       
  29 H29            0.4661    -2.1390     0.2142 H       
  30 H30           -1.1410    -5.9114    -0.4177 H       
  31 H31           -3.7792    -2.5513    -0.1514 H       
  32 H32           -3.6577    -6.1045    -0.1715 H       
  33 H33           -5.0942    -7.2475    -0.1887 H       
  34 H34           -7.0761    -8.6870    -0.3829 H       
  35 H35           -9.0737    -7.8906    -1.5709 H       
  36 H36           -7.1093    -4.1673    -2.3870 H       
  37 H37           -3.5143    -0.1827     1.2965 H       
  38 H38           -2.2536    -0.9647     2.2800 H       
  39 H39           -2.0211     0.7002     1.6951 H       
@<TRIPOS>BOND
   1    1    2 ar
   2    1    6 ar
   3    1   26 1
   4    2    3 ar
   5    2   15 1
   6    3    4 ar
   7    3   27 1
   8    4    5 ar
   9    5    6 ar
  10    5   28 1
  11    7    8 ar
  12    7   12 ar
  13    7   15 1
  14    8    9 ar
  15    8   29 1
  16    9   10 ar
  17   10   11 ar
  18   10   30 1
  19   11   12 ar
  20   11   13 1
  21   12   31 1
  22   13   14 am
  23   13   32 1
  24   14   16 1
  25   14   17 2
  26   15   24 1
  27   16   18 ar
  28   16   22 ar
  29   18   19 ar
  30   18   33 1
  31   19   20 ar
  32   19   34 1
  33   20   21 ar
  34   20   35 1
  35   21   22 ar
  36   21   23 1
  37   22   36 1
  38   23   25 3
  39   24   37 1
  40   24   38 1
  41   24   39 1

#	End of record

