#	Name: ASD01885596
#	Creating user name:	WinNT
#	Creation time:	15. 06. 2019 19:49

#	Modifying user name:	WinNT
#	Modification time:	15. 06. 2019 19:49

#	Program:	/corina/corina34_cracker 3.40 0067  02.08.2006

@<TRIPOS>MOLECULE
ASD01885596
  55   59    0    0    0
SMALL
NO_CHARGES


@<TRIPOS>ATOM
   1 C1            -0.0168     1.3910     0.0097 C.ar    
   2 C2             0.0021    -0.0041     0.0020 C.ar    
   3 C3            -1.1825    -0.7081     0.0100 C.ar    
   4 C4            -2.3961    -0.0293     0.0253 C.ar    
   5 C5            -2.4176     1.3611     0.0330 C.ar    
   6 C6            -1.2357     2.0697     0.0308 C.ar    
   7 C7             1.2550     2.1503     0.0016 C.2     
   8 N8            -3.5939    -0.7443     0.0324 N.pl3   
   9 C9             2.1445     2.0673     1.1007 C.2     
  10 C10            3.2997     2.7581     1.0914 C.2     
  11 N11            3.6340     3.5476     0.0288 N.pl3   
  12 C12            2.7988     3.6554    -1.0570 C.2     
  13 C13            1.5882     2.9424    -1.0812 C.2     
  14 C14            4.7072     4.3390    -0.2480 C.2     
  15 N15            4.5083     4.8751    -1.4243 N.2     
  16 N16            3.3854     4.4793    -1.9119 N.2     
  17 C17            5.9051     4.5579     0.6396 C.3     
  18 C18            6.9755     3.5128     0.3186 C.3     
  19 C19           -4.8730    -0.0304     0.0485 C.3     
  20 C20            8.3220     3.6377     1.0344 C.3     
  21 C21            7.3495     2.5222     1.4230 C.3     
  22 C22           -6.0041    -1.0263     0.0534 C.ar    
  23 C23           -6.5165    -1.4941     1.2469 C.ar    
  24 N24           -7.5068    -2.3662     1.2622 N.ar    
  25 C25           -8.0451    -2.8246     0.1446 C.ar    
  26 C26           -7.5794    -2.3974    -1.0925 C.ar    
  27 C27           -6.5457    -1.4788    -1.1421 C.ar    
  28 O28           -9.0616    -3.7211     0.2069 O.3     
  29 C29           -9.4948    -4.1213     1.5085 C.3     
  30 C30            0.6613     3.0493    -2.2646 C.3     
  31 F31           -0.1617     4.1703    -2.1126 F       
  32 F32            1.4143     3.1791    -3.4366 F       
  33 F33           -0.1291     1.8977    -2.3434 F       
  34 H34            0.9443    -0.5317    -0.0105 H       
  35 H35           -1.1684    -1.7880     0.0041 H       
  36 H36           -3.3614     1.8860     0.0448 H       
  37 H37           -1.2529     3.1496     0.0371 H       
  38 H38           -3.5798    -1.7142     0.0268 H       
  39 H39            1.8948     1.4478     1.9495 H       
  40 H40            3.9703     2.6872     1.9350 H       
  41 H41            6.3081     5.5558     0.4666 H       
  42 H42            5.6061     4.4628     1.6835 H       
  43 H43            6.9836     3.1484    -0.7087 H       
  44 H44           -4.9315     0.5902     0.9426 H       
  45 H45           -4.9482     0.6004    -0.8372 H       
  46 H46            9.2158     3.3550     0.4783 H       
  47 H47            8.4452     4.4643     1.7341 H       
  48 H48            6.8329     2.6150     2.3783 H       
  49 H49            7.6035     1.5058     1.1225 H       
  50 H50           -6.1015    -1.1422     2.1797 H       
  51 H51           -8.0210    -2.7739    -2.0033 H       
  52 H52           -6.1633    -1.1282    -2.0893 H       
  53 H53           -8.6640    -4.5831     2.0419 H       
  54 H54           -9.8406    -3.2476     2.0609 H       
  55 H55          -10.3103    -4.8385     1.4154 H       
@<TRIPOS>BOND
   1    1    2 ar
   2    1    7 1
   3    1    6 ar
   4    2    3 ar
   5    2   34 1
   6    3    4 ar
   7    3   35 1
   8    4    5 ar
   9    4    8 1
  10    5    6 ar
  11    5   36 1
  12    6   37 1
  13    7    9 1
  14    7   13 2
  15    8   19 1
  16    8   38 1
  17    9   10 2
  18    9   39 1
  19   10   11 1
  20   10   40 1
  21   11   12 1
  22   11   14 1
  23   12   13 1
  24   12   16 2
  25   13   30 1
  26   14   15 2
  27   14   17 1
  28   15   16 1
  29   17   18 1
  30   17   41 1
  31   17   42 1
  32   18   20 1
  33   18   21 1
  34   18   43 1
  35   19   22 1
  36   19   44 1
  37   19   45 1
  38   20   21 1
  39   20   46 1
  40   20   47 1
  41   21   48 1
  42   21   49 1
  43   22   23 ar
  44   22   27 ar
  45   23   24 ar
  46   23   50 1
  47   24   25 ar
  48   25   26 ar
  49   25   28 1
  50   26   27 ar
  51   26   51 1
  52   27   52 1
  53   28   29 1
  54   29   53 1
  55   29   54 1
  56   29   55 1
  57   30   31 1
  58   30   32 1
  59   30   33 1

#	End of record

