#	Name: ASD03092171
#	Creating user name:	WinNT
#	Creation time:	15. 06. 2019 20:32

#	Modifying user name:	WinNT
#	Modification time:	15. 06. 2019 20:32

#	Program:	/corina/corina34_cracker 3.40 0067  02.08.2006

@<TRIPOS>MOLECULE
ASD03092171
  53   56    0    0    0
SMALL
NO_CHARGES


@<TRIPOS>ATOM
   1 N1             0.0490     1.1161    -0.2569 N.pl3   
   2 C2            -0.1082    -0.1653     0.1804 C.2     
   3 C3            -1.4468    -0.3803     0.3450 C.2     
   4 C4            -2.1158     0.8008    -0.0015 C.2     
   5 N5            -1.2223     1.6955    -0.3553 N.2     
   6 N6            -3.5018     0.9960     0.0300 N.pl3   
   7 C7            -4.0355     2.2628    -0.2265 C.ar    
   8 C8            -5.3246     2.3858    -0.7285 C.ar    
   9 C9            -5.8498     3.6383    -0.9806 C.ar    
  10 C10           -5.0922     4.7704    -0.7334 C.ar    
  11 C11           -3.2792     3.4004     0.0258 C.ar    
  12 C12            0.9729    -1.1439     0.4304 C.ar    
  13 C13            1.3222     1.7728    -0.5635 C.3     
  14 C14            0.7546    -2.2240     1.2856 C.ar    
  15 C15            1.7645    -3.1344     1.5177 C.ar    
  16 C16            2.9998    -2.9804     0.9032 C.ar    
  17 C17            3.2227    -1.9065     0.0467 C.ar    
  18 C18            2.2116    -0.9922    -0.1930 C.ar    
  19 C19           -3.8063     4.6502    -0.2332 C.ar    
  20 C20            1.6220     1.6261    -2.0331 C.2     
  21 N21            2.7499     2.1556    -2.5469 N.am    
  22 O22            0.8484     1.0316    -2.7534 O.2     
  23 O23            3.9844    -3.8867     1.1527 O.3     
  24 C24            5.0821    -3.9141     0.2342 C.3     
  25 C25            5.5322    -2.4693    -0.0207 C.3     
  26 O26            4.4257    -1.7456    -0.5700 O.3     
  27 C27            3.0413     2.0131    -3.9755 C.3     
  28 C28            4.3710     2.6989    -4.2957 C.3     
  29 F29           -5.6080     5.9944    -0.9807 F       
  30 C30           -7.2483     3.7724    -1.5257 C.3     
  31 F31           -7.8081     2.5010    -1.6917 F       
  32 F32           -8.0287     4.5123    -0.6309 F       
  33 F33           -7.2066     4.4283    -2.7607 F       
  34 H34           -1.9075    -1.2972     0.6818 H       
  35 H35           -4.0919     0.2525     0.2296 H       
  36 H36           -5.9157     1.5029    -0.9218 H       
  37 H37           -2.2780     3.3073     0.4200 H       
  38 H38            1.2556     2.8308    -0.3101 H       
  39 H39            2.1193     1.3094     0.0179 H       
  40 H40           -0.2048    -2.3472     1.7661 H       
  41 H41            1.5938    -3.9699     2.1803 H       
  42 H42            2.3842    -0.1572    -0.8559 H       
  43 H43           -3.2170     5.5347    -0.0418 H       
  44 H44            3.3687     2.6311    -1.9707 H       
  45 H45            5.9057    -4.4854     0.6626 H       
  46 H46            4.7656    -4.3713    -0.7033 H       
  47 H47            5.8424    -2.0099     0.9178 H       
  48 H48            6.3629    -2.4621    -0.7264 H       
  49 H49            3.1080     0.9550    -4.2289 H       
  50 H50            2.2443     2.4764    -4.5569 H       
  51 H51            4.3044     3.7569    -4.0423 H       
  52 H52            5.1681     2.2355    -3.7142 H       
  53 H53            4.5879     2.5928    -5.3586 H       
@<TRIPOS>BOND
   1    1    2 1
   2    1   13 1
   3    1    5 1
   4    2    3 2
   5    2   12 1
   6    3    4 1
   7    3   34 1
   8    4    5 2
   9    4    6 1
  10    6    7 1
  11    6   35 1
  12    7    8 ar
  13    7   11 ar
  14    8    9 ar
  15    8   36 1
  16    9   10 ar
  17    9   30 1
  18   10   19 ar
  19   10   29 1
  20   11   19 ar
  21   11   37 1
  22   12   14 ar
  23   12   18 ar
  24   13   20 1
  25   13   38 1
  26   13   39 1
  27   14   15 ar
  28   14   40 1
  29   15   16 ar
  30   15   41 1
  31   16   17 ar
  32   16   23 1
  33   17   18 ar
  34   17   26 1
  35   18   42 1
  36   19   43 1
  37   20   21 am
  38   20   22 2
  39   21   27 1
  40   21   44 1
  41   23   24 1
  42   24   25 1
  43   24   45 1
  44   24   46 1
  45   25   26 1
  46   25   47 1
  47   25   48 1
  48   27   28 1
  49   27   49 1
  50   27   50 1
  51   28   51 1
  52   28   52 1
  53   28   53 1
  54   30   31 1
  55   30   32 1
  56   30   33 1

#	End of record

