#	Name: ASD03910126
#	Creating user name:	WinNT
#	Creation time:	15. 06. 2019 20:47

#	Modifying user name:	WinNT
#	Modification time:	15. 06. 2019 20:47

#	Program:	/corina/corina34_cracker 3.40 0067  02.08.2006

@<TRIPOS>MOLECULE
ASD03910126
  25   27    0    0    0
SMALL
NO_CHARGES


@<TRIPOS>ATOM
   1 C1            -0.0162     1.3452     0.0094 C.2     
   2 N2             1.2646     1.7657    -0.0005 N.am    
   3 S3            -1.4095     2.3399     0.0217 S.2     
   4 C4             2.0817     0.6621    -0.0143 C.2     
   5 N5             1.3459    -0.4025    -0.0130 N.2     
   6 N6             0.0021    -0.0041     0.0020 N.am    
   7 C7             3.5884     0.6867    -0.0290 C.3     
   8 C8             4.1323    -0.7059     0.3180 C.3     
   9 O9             5.5625    -0.6503     0.2827 O.3     
  10 C10            6.1244    -0.0275    -0.7892 C.ar    
  11 C11            5.3711     0.8167    -1.5969 C.ar    
  12 O12            4.0530     1.0367    -1.3373 O.3     
  13 C13            5.9647     1.4444    -2.6814 C.ar    
  14 C14            7.3015     1.2289    -2.9598 C.ar    
  15 C15            8.0499     0.3877    -2.1582 C.ar    
  16 C16            7.4646    -0.2399    -1.0744 C.ar    
  17 H17            1.5588     2.6901     0.0013 H       
  18 H18           -0.7712    -0.5896     0.0065 H       
  19 H19            3.9513     1.4144     0.6969 H       
  20 H20            3.8001    -0.9920     1.3160 H       
  21 H21            3.7739    -1.4326    -0.4110 H       
  22 H22            5.3821     2.1021    -3.3094 H       
  23 H23            7.7618     1.7184    -3.8053 H       
  24 H24            9.0938     0.2206    -2.3788 H       
  25 H25            8.0517    -0.8963    -0.4494 H       
@<TRIPOS>BOND
   1    1    6 am
   2    1    2 am
   3    1    3 2
   4    2    4 1
   5    2   17 1
   6    4    5 2
   7    4    7 1
   8    5    6 1
   9    6   18 1
  10    7   19 1
  11    7    8 1
  12    7   12 1
  13    8   20 1
  14    8   21 1
  15    8    9 1
  16    9   10 1
  17   10   11 ar
  18   10   16 ar
  19   11   12 1
  20   11   13 ar
  21   13   22 1
  22   13   14 ar
  23   14   23 1
  24   14   15 ar
  25   15   24 1
  26   15   16 ar
  27   16   25 1

#	End of record

