#	Name: ASD01230513
#	Creating user name:	WinNT
#	Creation time:	15. 06. 2019 19:14

#	Modifying user name:	WinNT
#	Modification time:	15. 06. 2019 19:14

#	Program:	/corina/corina34_cracker 3.40 0067  02.08.2006

@<TRIPOS>MOLECULE
ASD01230513
  44   47    0    0    0
SMALL
NO_CHARGES


@<TRIPOS>ATOM
   1 C1            -0.4072     3.8766     0.1932 C.3     
   2 C2            -0.8841     2.5464     0.7617 C.3     
   3 N3             0.0939     1.4859     0.5017 N.pl3   
   4 C4             1.3934     1.7185     0.8730 C.2     
   5 C5             1.7501     3.1749     1.1162 C.3     
   6 N6             1.0463     3.9699     0.1009 N.3     
   7 C7            -0.3022     0.2480    -0.1618 C.3     
   8 C8             0.1816    -0.9500     0.6566 C.3     
   9 S9             1.9671    -0.8088     0.9312 S.o2    
  10 N10            2.2648     0.8065     1.0544 N.am    
  11 C11            3.2382     3.3687     0.9789 C.ar    
  12 C12            4.0328     3.4347     2.1086 C.ar    
  13 C13            5.3971     3.6122     1.9855 C.ar    
  14 C14            5.9702     3.7240     0.7267 C.ar    
  15 C15            5.1707     3.6570    -0.4053 C.ar    
  16 C16            3.8074     3.4745    -0.2768 C.ar    
  17 O17            7.3120     3.8991     0.6029 O.3     
  18 C18            8.0684     3.8511     1.7308 C.ar    
  19 C19            8.5759     2.6389     2.1762 C.ar    
  20 C20            9.3449     2.5930     3.3228 C.ar    
  21 C21            9.6087     3.7534     4.0267 C.ar    
  22 C22            9.1043     4.9627     3.5850 C.ar    
  23 C23            8.3395     5.0150     2.4359 C.ar    
  24 O24            2.3145    -1.3241     2.2091 O.2     
  25 O25            2.6805    -1.2055    -0.2319 O.2     
  26 H26           -0.8307     4.0043    -0.8030 H       
  27 H27           -0.7705     4.6815     0.8320 H       
  28 H28           -1.0262     2.6470     1.8377 H       
  29 H29           -1.8341     2.2790     0.2990 H       
  30 H30            1.4261     3.4750     2.1128 H       
  31 H31            1.3655     3.7355    -0.8271 H       
  32 H32           -1.3883     0.2139    -0.2481 H       
  33 H33            0.1419     0.2112    -1.1565 H       
  34 H34           -0.3338    -0.9664     1.6169 H       
  35 H35           -0.0311    -1.8710     0.1137 H       
  36 H36            3.5862     3.3476     3.0881 H       
  37 H37            6.0172     3.6644     2.8682 H       
  38 H38            5.6143     3.7437    -1.3862 H       
  39 H39            3.1852     3.4182    -1.1577 H       
  40 H40            8.3695     1.7321     1.6271 H       
  41 H41            9.7401     1.6497     3.6699 H       
  42 H42           10.2096     3.7152     4.9233 H       
  43 H43            9.3116     5.8676     4.1369 H       
  44 H44            7.9491     5.9604     2.0891 H       
@<TRIPOS>BOND
   1    1    2 1
   2    1    6 1
   3    1   26 1
   4    1   27 1
   5    2    3 1
   6    2   28 1
   7    2   29 1
   8    3    4 1
   9    3    7 1
  10    4    5 1
  11    4   10 2
  12    5    6 1
  13    5   11 1
  14    5   30 1
  15    6   31 1
  16    7    8 1
  17    7   32 1
  18    7   33 1
  19    8    9 1
  20    8   34 1
  21    8   35 1
  22    9   10 am
  23    9   24 2
  24    9   25 2
  25   11   12 ar
  26   11   16 ar
  27   12   13 ar
  28   12   36 1
  29   13   14 ar
  30   13   37 1
  31   14   15 ar
  32   14   17 1
  33   15   16 ar
  34   15   38 1
  35   16   39 1
  36   17   18 1
  37   18   19 ar
  38   18   23 ar
  39   19   20 ar
  40   19   40 1
  41   20   21 ar
  42   20   41 1
  43   21   22 ar
  44   21   42 1
  45   22   23 ar
  46   22   43 1
  47   23   44 1

#	End of record

