#	Name: ASD06140016
#	Creating user name:	WinNT
#	Creation time:	15. 06. 2019 21:05

#	Modifying user name:	WinNT
#	Modification time:	15. 06. 2019 21:05

#	Program:	/corina/corina34_cracker 3.40 0067  02.08.2006

@<TRIPOS>MOLECULE
ASD06140016
  26   28    0    0    0
SMALL
NO_CHARGES


@<TRIPOS>ATOM
   1 N1            -0.2791     0.7298     1.6112 N.ar    
   2 C2            -0.1092    -0.2424     0.7375 C.ar    
   3 C3             1.2091    -0.8384     0.5297 C.ar    
   4 N4             2.2493    -0.4196     1.2062 N.ar    
   5 C5             2.1046     0.5674     2.1002 C.ar    
   6 C6             0.7690     1.1741     2.3140 C.ar    
   7 N7             2.8631     1.2352     2.9367 N.2     
   8 O8             2.1840     2.0509     3.5249 O.3     
   9 N9             1.0060     2.0795     3.2342 N.2     
  10 Cl10           1.3983    -2.1180    -0.6280 Cl      
  11 N11           -1.1902    -0.7038     0.0096 N.pl3   
  12 C12           -2.4278    -0.0638     0.1151 C.ar    
  13 C13           -2.4865     1.3079     0.3261 C.ar    
  14 C14           -3.6027    -0.7972     0.0035 C.ar    
  15 C15           -4.8240    -0.1616     0.1082 C.ar    
  16 C16           -4.8787     1.2035     0.3240 C.ar    
  17 C17           -3.7115     1.9373     0.4298 C.ar    
  18 C18           -6.0988    -0.9561    -0.0132 C.3     
  19 H19           -1.0896    -1.4718    -0.5742 H       
  20 H20           -1.5752     1.8815     0.4092 H       
  21 H21           -3.5607    -1.8631    -0.1654 H       
  22 H22           -5.8353     1.6982     0.4055 H       
  23 H23           -3.7578     3.0030     0.5983 H       
  24 H24           -6.4027    -1.3083     0.9725 H       
  25 H25           -6.8825    -0.3239    -0.4307 H       
  26 H26           -5.9333    -1.8106    -0.6692 H       
@<TRIPOS>BOND
   1    1    2 ar
   2    1    6 ar
   3    2    3 ar
   4    2   11 1
   5    3    4 ar
   6    3   10 1
   7    4    5 ar
   8    5    6 ar
   9    5    7 2
  10    6    9 2
  11    7    8 1
  12    8    9 1
  13   11   12 1
  14   11   19 1
  15   12   13 ar
  16   12   14 ar
  17   13   17 ar
  18   13   20 1
  19   14   15 ar
  20   14   21 1
  21   15   16 ar
  22   15   18 1
  23   16   17 ar
  24   16   22 1
  25   17   23 1
  26   18   24 1
  27   18   25 1
  28   18   26 1

#	End of record

