#	Name: ASD06170102
#	Creating user name:	WinNT
#	Creation time:	15. 06. 2019 21:05

#	Modifying user name:	WinNT
#	Modification time:	15. 06. 2019 21:05

#	Program:	/corina/corina34_cracker 3.40 0067  02.08.2006

@<TRIPOS>MOLECULE
ASD06170102
  74   78    0    0    0
SMALL
NO_CHARGES


@<TRIPOS>ATOM
   1 N1            -0.1402     1.3481    -1.5007 N.pl3   
   2 N2             0.1919    -0.0089    -1.4478 N.am    
   3 C3             1.4092    -0.1753    -2.0054 C.2     
   4 C4             1.8604     1.1593    -2.4303 C.2     
   5 C5             0.8548     2.0414    -2.0861 C.2     
   6 C6             3.1299     1.4886    -3.0894 C.2     
   7 O7             3.3790     2.6416    -3.3886 O.2     
   8 N8             4.0197     0.5141    -3.3631 N.am    
   9 C9            -0.6041    -1.0239    -0.9071 C.ar    
  10 C10           -0.8338    -2.1877    -1.6295 C.ar    
  11 C11           -1.6199    -3.1882    -1.0925 C.ar    
  12 C12           -2.1785    -3.0320     0.1628 C.ar    
  13 C13           -1.9518    -1.8746     0.8847 C.ar    
  14 C14           -1.1619    -0.8727     0.3558 C.ar    
  15 O15            2.0151    -1.2230    -2.1318 O.2     
  16 C16            0.8685     3.5291    -2.3260 C.3     
  17 C17            5.2652     0.8380    -3.9153 C.ar    
  18 C18            5.8937     2.0253    -3.5626 C.ar    
  19 C19            7.1232     2.3439    -4.1078 C.ar    
  20 C20            7.7294     1.4761    -5.0083 C.ar    
  21 C21            7.1010     0.2912    -5.3596 C.ar    
  22 C22            5.8745    -0.0303    -4.8110 C.ar    
  23 O23            8.9389     1.7894    -5.5453 O.3     
  24 N24           12.2993     0.9878    -3.2928 N.ar    
  25 C25           11.1150     0.6158    -2.8668 C.ar    
  26 C26            9.9613     0.8684    -3.5977 C.ar    
  27 C27           10.0479     1.5297    -4.8104 C.ar    
  28 C28           11.3284     1.9257    -5.2594 C.ar    
  29 C29           11.4955     2.6002    -6.4776 C.ar    
  30 C30           12.7415     2.9688    -6.8824 C.ar    
  31 C31           13.8621     2.6832    -6.0972 C.ar    
  32 C32           13.7309     2.0221    -4.8969 C.ar    
  33 C33           12.4567     1.6311    -4.4558 C.ar    
  34 O34           15.0949     3.0619    -6.5238 O.3     
  35 C35           15.1664     3.7439    -7.7775 C.3     
  36 F36            7.7352     3.4987    -3.7658 F       
  37 C37           -1.3883     1.9287    -0.9993 C.3     
  38 C38           -2.3541     2.1466    -2.1657 C.3     
  39 C39           -3.6444     2.7846    -1.6470 C.3     
  40 N40           -2.6642     0.8548    -2.7925 N.3     
  41 C41           -3.5845     0.0717    -1.9572 C.3     
  42 C42           -3.2099     1.0426    -4.1434 C.3     
  43 H43            3.7974    -0.4117    -3.1777 H       
  44 H44           -0.3984    -2.3099    -2.6103 H       
  45 H45           -1.7989    -4.0934    -1.6538 H       
  46 H46           -2.7935    -3.8156     0.5802 H       
  47 H47           -2.3895    -1.7557     1.8648 H       
  48 H48           -0.9819     0.0294     0.9218 H       
  49 H49            1.2532     4.0363    -1.4412 H       
  50 H50            1.5075     3.7536    -3.1800 H       
  51 H51           -0.1453     3.8736    -2.5302 H       
  52 H52            5.4218     2.6993    -2.8630 H       
  53 H53            7.5725    -0.3829    -6.0594 H       
  54 H54            5.3877    -0.9554    -5.0821 H       
  55 H55           11.0353     0.0990    -1.9218 H       
  56 H56            9.0005     0.5495    -3.2216 H       
  57 H57           10.6375     2.8263    -7.0933 H       
  58 H58           12.8659     3.4878    -7.8213 H       
  59 H59           14.6032     1.8056    -4.2980 H       
  60 H60           16.2051     3.9890    -7.9991 H       
  61 H61           14.7689     3.1019    -8.5635 H       
  62 H62           14.5796     4.6611    -7.7262 H       
  63 H63           -1.8397     1.2501    -0.2756 H       
  64 H64           -1.1772     2.8842    -0.5189 H       
  65 H65           -1.8929     2.8059    -2.9010 H       
  66 H66           -4.1056     2.1253    -0.9116 H       
  67 H67           -3.4144     3.7431    -1.1819 H       
  68 H68           -4.3326     2.9398    -2.4780 H       
  69 H69           -4.5562     0.5647    -1.9267 H       
  70 H70           -3.6970    -0.9272    -2.3786 H       
  71 H71           -3.1833    -0.0034    -0.9465 H       
  72 H72           -2.4790     1.5644    -4.7612 H       
  73 H73           -3.4307     0.0706    -4.5845 H       
  74 H74           -4.1249     1.6323    -4.0869 H       
@<TRIPOS>BOND
   1    1    2 1
   2    1    5 1
   3    1   37 1
   4    2    3 am
   5    2    9 1
   6    3    4 1
   7    3   15 2
   8    4    5 2
   9    4    6 1
  10    5   16 1
  11    6    7 2
  12    6    8 am
  13    8   17 1
  14    8   43 1
  15    9   10 ar
  16    9   14 ar
  17   10   11 ar
  18   10   44 1
  19   11   12 ar
  20   11   45 1
  21   12   13 ar
  22   12   46 1
  23   13   14 ar
  24   13   47 1
  25   14   48 1
  26   16   49 1
  27   16   50 1
  28   16   51 1
  29   17   18 ar
  30   17   22 ar
  31   18   19 ar
  32   18   52 1
  33   19   20 ar
  34   19   36 1
  35   20   21 ar
  36   20   23 1
  37   21   22 ar
  38   21   53 1
  39   22   54 1
  40   23   27 1
  41   24   25 ar
  42   24   33 ar
  43   25   26 ar
  44   25   55 1
  45   26   27 ar
  46   26   56 1
  47   27   28 ar
  48   28   29 ar
  49   28   33 ar
  50   29   30 ar
  51   29   57 1
  52   30   31 ar
  53   30   58 1
  54   31   32 ar
  55   31   34 1
  56   32   33 ar
  57   32   59 1
  58   34   35 1
  59   35   60 1
  60   35   61 1
  61   35   62 1
  62   37   38 1
  63   37   63 1
  64   37   64 1
  65   38   39 1
  66   38   40 1
  67   38   65 1
  68   39   66 1
  69   39   67 1
  70   39   68 1
  71   40   41 1
  72   40   42 1
  73   41   69 1
  74   41   70 1
  75   41   71 1
  76   42   72 1
  77   42   73 1
  78   42   74 1

#	End of record

