#	Name: ASD01901355
#	Creating user name:	WinNT
#	Creation time:	15. 06. 2019 19:53

#	Modifying user name:	WinNT
#	Modification time:	15. 06. 2019 19:53

#	Program:	/corina/corina34_cracker 3.40 0067  02.08.2006

@<TRIPOS>MOLECULE
ASD01901355
  44   47    0    0    0
SMALL
NO_CHARGES


@<TRIPOS>ATOM
   1 C1            -0.0168     1.3891     0.0097 C.ar    
   2 C2             1.1704     2.0929     0.0021 C.ar    
   3 C3             2.3775     1.4176    -0.0135 C.ar    
   4 C4             2.4021     0.0346    -0.0212 C.ar    
   5 C5             1.2208    -0.6791    -0.0133 C.ar    
   6 C6             0.0021    -0.0041     0.0020 C.ar    
   7 C7            -1.2714    -0.7662     0.0106 C.2     
   8 N8            -3.0014    -1.8079     1.2339 N.2     
   9 C9            -1.8766    -1.1353     1.2316 C.2     
  10 C10           -1.8778    -1.1158    -1.1635 C.2     
  11 N11           -3.0471    -1.8154    -1.1199 N.pl3   
  12 C12           -3.6007    -2.1598     0.0864 C.2     
  13 C13           -3.8744    -2.2993    -2.0974 C.2     
  14 C14           -4.9004    -2.9197    -1.4773 C.2     
  15 N15           -4.7195    -2.8275    -0.1564 N.2     
  16 C16           -6.0566    -3.6034    -2.1606 C.3     
  17 O17           -5.9035    -3.4962    -3.5773 O.3     
  18 C18           -6.8689    -4.0650    -4.3472 C.ar    
  19 C19           -7.9437    -4.7075    -3.7506 C.ar    
  20 C20           -6.7829    -3.9983    -5.7300 C.ar    
  21 C21           -7.7649    -4.5763    -6.5111 C.ar    
  22 C22           -8.8347    -5.2215    -5.9143 C.ar    
  23 C23           -8.9242    -5.2846    -4.5341 C.ar    
  24 C24           -1.3311     2.1261     0.0325 C.3     
  25 F25           -9.7948    -5.7855    -6.6794 F       
  26 C26            1.2491    -2.1858    -0.0221 C.3     
  27 H27            1.1570     3.1728     0.0081 H       
  28 H28            3.3042     1.9722    -0.0201 H       
  29 H29            3.3473    -0.4876    -0.0337 H       
  30 H30           -1.4108    -0.8626     2.1670 H       
  31 H31           -1.4376    -0.8417    -2.1109 H       
  32 H32           -3.7330    -2.2026    -3.1638 H       
  33 H33           -6.0763    -4.6554    -1.8759 H       
  34 H34           -6.9898    -3.1278    -1.8590 H       
  35 H35           -8.0137    -4.7569    -2.6740 H       
  36 H36           -5.9489    -3.4945    -6.1958 H       
  37 H37           -7.6983    -4.5245    -7.5878 H       
  38 H38           -9.7612    -5.7849    -4.0698 H       
  39 H39           -1.6332     2.2983     1.0655 H       
  40 H40           -1.2201     3.0828    -0.4780 H       
  41 H41           -2.0906     1.5302    -0.4737 H       
  42 H42            1.2664    -2.5550     1.0033 H       
  43 H43            0.3610    -2.5630    -0.5291 H       
  44 H44            2.1405    -2.5294    -0.5470 H       
@<TRIPOS>BOND
   1    1    6 ar
   2    1    2 ar
   3    1   24 1
   4    2    3 ar
   5    2   27 1
   6    3    4 ar
   7    3   28 1
   8    4    5 ar
   9    4   29 1
  10    5    6 ar
  11    5   26 1
  12    6    7 1
  13    7   10 2
  14    7    9 1
  15    8    9 2
  16    8   12 1
  17    9   30 1
  18   10   11 1
  19   10   31 1
  20   11   13 1
  21   11   12 1
  22   12   15 2
  23   13   14 2
  24   13   32 1
  25   14   15 1
  26   14   16 1
  27   16   17 1
  28   16   33 1
  29   16   34 1
  30   17   18 1
  31   18   20 ar
  32   18   19 ar
  33   19   23 ar
  34   19   35 1
  35   20   21 ar
  36   20   36 1
  37   21   22 ar
  38   21   37 1
  39   22   23 ar
  40   22   25 1
  41   23   38 1
  42   24   39 1
  43   24   40 1
  44   24   41 1
  45   26   42 1
  46   26   43 1
  47   26   44 1

#	End of record

