#	Name: ASD05430637
#	Creating user name:	WinNT
#	Creation time:	15. 06. 2019 21:00

#	Modifying user name:	WinNT
#	Modification time:	15. 06. 2019 21:00

#	Program:	/corina/corina34_cracker 3.40 0067  02.08.2006

@<TRIPOS>MOLECULE
ASD05430637
  34   35    0    0    0
SMALL
NO_CHARGES


@<TRIPOS>ATOM
   1 C1            -0.0168     1.3902     0.0097 C.ar    
   2 C2             0.0021    -0.0041     0.0020 C.ar    
   3 C3            -1.2038    -0.6940     0.0103 C.ar    
   4 C4            -2.3828     0.0369     0.0259 C.ar    
   5 C5            -2.3237     1.4165     0.0327 C.ar    
   6 N6            -1.1640     2.0465     0.0297 N.ar    
   7 C7            -3.6021     2.2144     0.0492 C.3     
   8 C8            -4.1150     2.3854    -1.3821 C.3     
   9 C9            -4.6524     1.4775     0.8827 C.3     
  10 N10            1.2210    -0.7000    -0.0143 N.pl3   
  11 C11            2.2615    -0.4858    -0.8602 C.2     
  12 C12            1.5880    -1.7201     0.8244 C.2     
  13 C13            2.8293    -2.0961     0.4615 C.2     
  14 N14            3.2155    -1.3273    -0.5673 N.2     
  15 C15            3.6451    -3.1883     1.1038 C.3     
  16 O16            1.1525     2.0791     0.0022 O.3     
  17 C17            1.0652     3.5054     0.0107 C.3     
  18 H18           -1.2229    -1.7738     0.0043 H       
  19 H19           -3.3375    -0.4681     0.0323 H       
  20 H20           -3.4130     3.1945     0.4870 H       
  21 H21           -5.0396     2.9625    -1.3702 H       
  22 H22           -3.3667     2.9103    -1.9759 H       
  23 H23           -4.3040     1.4052    -1.8198 H       
  24 H24           -4.2870     1.3557     1.9024 H       
  25 H25           -5.5770     2.0546     0.8946 H       
  26 H26           -4.8415     0.4974     0.4450 H       
  27 H27            2.2942     0.2565    -1.6439 H       
  28 H28            0.9955    -2.1414     1.6230 H       
  29 H29            3.4431    -4.1351     0.6028 H       
  30 H30            4.7050    -2.9497     1.0158 H       
  31 H31            3.3773    -3.2703     2.1572 H       
  32 H32            0.5387     3.8319     0.9075 H       
  33 H33            2.0687     3.9309     0.0034 H       
  34 H34            0.5217     3.8414    -0.8723 H       
@<TRIPOS>BOND
   1    1    2 ar
   2    1   16 1
   3    1    6 ar
   4    2    3 ar
   5    2   10 1
   6    3    4 ar
   7    3   18 1
   8    4    5 ar
   9    4   19 1
  10    5    6 ar
  11    5    7 1
  12    7    8 1
  13    7    9 1
  14    7   20 1
  15    8   21 1
  16    8   22 1
  17    8   23 1
  18    9   24 1
  19    9   25 1
  20    9   26 1
  21   10   11 1
  22   10   12 1
  23   11   14 2
  24   11   27 1
  25   12   13 2
  26   12   28 1
  27   13   14 1
  28   13   15 1
  29   15   29 1
  30   15   30 1
  31   15   31 1
  32   16   17 1
  33   17   32 1
  34   17   33 1
  35   17   34 1

#	End of record

