#	Name: ASD01010028
#	Creating user name:	WinNT
#	Creation time:	15. 06. 2019 18:56

#	Modifying user name:	WinNT
#	Modification time:	15. 06. 2019 18:56

#	Program:	/corina/corina34_cracker 3.40 0067  02.08.2006

@<TRIPOS>MOLECULE
ASD01010028
  34   34    0    0    0
SMALL
NO_CHARGES


@<TRIPOS>ATOM
   1 C1            -0.0179     1.4698     0.0101 C.2     
   2 C2             0.0021    -0.0041     0.0020 C.ar    
   3 C3             1.2235    -0.6928    -0.0133 C.ar    
   4 O4             2.3931    -0.0059    -0.0208 O.3     
   5 C5             1.2301    -2.0795    -0.0204 C.ar    
   6 C6             0.0386    -2.7775    -0.0123 C.ar    
   7 C7            -1.1701    -2.1010     0.0025 C.ar    
   8 C8            -1.1958    -0.7233     0.0154 C.ar    
   9 O9             1.0260     2.0916     0.0035 O.2     
  10 O10           -1.1939     2.1276     0.0193 O.3     
  11 C11           -2.4629    -2.8754     0.0102 C.3     
  12 C12           -3.2595    -2.5254     1.2687 C.3     
  13 C13           -3.2825    -2.5120    -1.2297 C.3     
  14 C14            2.5393    -2.8257    -0.0374 C.3     
  15 C15            2.6378    -3.7111     1.2065 C.3     
  16 C16            2.6125    -3.6985    -1.2918 C.3     
  17 H17            2.7406     0.1886     0.8603 H       
  18 H18            0.0492    -3.8575    -0.0178 H       
  19 H19           -2.1405    -0.2001     0.0315 H       
  20 H20           -1.1564     3.0939     0.0244 H       
  21 H21           -2.2466    -3.9437     0.0025 H       
  22 H22           -4.1946    -3.0855     1.2742 H       
  23 H23           -2.6757    -2.7843     2.1519 H       
  24 H24           -3.4759    -1.4571     1.2764 H       
  25 H25           -2.7149    -2.7614    -2.1263 H       
  26 H26           -4.2175    -3.0721    -1.2241 H       
  27 H27           -3.4988    -1.4438    -1.2220 H       
  28 H28            3.3638    -2.1127    -0.0421 H       
  29 H29            1.8133    -4.4240     1.2113 H       
  30 H30            3.5847    -4.2508     1.1942 H       
  31 H31            2.5856    -3.0892     2.1002 H       
  32 H32            2.5423    -3.0678    -2.1780 H       
  33 H33            3.5594    -4.2383    -1.3041 H       
  34 H34            1.7880    -4.4115    -1.2870 H       
@<TRIPOS>BOND
   1    1    2 1
   2    1    9 2
   3    1   10 1
   4    2    3 ar
   5    2    8 ar
   6    3    4 1
   7    3    5 ar
   8    4   17 1
   9    5    6 ar
  10    5   14 1
  11    6    7 ar
  12    6   18 1
  13    7    8 ar
  14    7   11 1
  15    8   19 1
  16   10   20 1
  17   11   12 1
  18   11   13 1
  19   11   21 1
  20   12   22 1
  21   12   23 1
  22   12   24 1
  23   13   25 1
  24   13   26 1
  25   13   27 1
  26   14   15 1
  27   14   16 1
  28   14   28 1
  29   15   29 1
  30   15   30 1
  31   15   31 1
  32   16   32 1
  33   16   33 1
  34   16   34 1

#	End of record

