#	Name: ASD01913594
#	Creating user name:	WinNT
#	Creation time:	15. 06. 2019 20:01

#	Modifying user name:	WinNT
#	Modification time:	15. 06. 2019 20:01

#	Program:	/corina/corina34_cracker 3.40 0067  02.08.2006

@<TRIPOS>MOLECULE
ASD01913594
  33   35    0    0    0
SMALL
NO_CHARGES


@<TRIPOS>ATOM
   1 C1            -2.8086     0.2909    -1.2466 C.ar    
   2 C2            -2.3020    -0.1541    -0.0298 C.ar    
   3 C3            -3.0951    -0.0155     1.1047 C.ar    
   4 N4            -4.2942     0.5305     0.9870 N.ar    
   5 C5            -4.7389     0.9400    -0.1841 C.ar    
   6 N6            -4.0178     0.8261    -1.2814 N.ar    
   7 C7            -0.9774    -2.0622     0.1329 C.ar    
   8 C8             0.2608    -2.6938     0.2074 C.ar    
   9 C9             0.3124    -4.0734     0.2981 C.ar    
  10 N10           -0.7893    -4.7927     0.3148 N.ar    
  11 C11           -1.9918    -4.2324     0.2459 C.ar    
  12 C12           -2.1251    -2.8511     0.1529 C.ar    
  13 C13           -3.2019    -5.0866     0.2685 C.2     
  14 N14           -3.0798    -6.4258     0.3585 N.am    
  15 O15           -1.0644    -0.7102     0.0486 O.3     
  16 O16           -4.3046    -4.5799     0.2058 O.2     
  17 C17           -4.2160    -7.2219     0.4858 C.ar    
  18 C18           -4.0788    -8.5888     0.6950 C.ar    
  19 C19           -5.2171    -9.3686     0.8202 C.ar    
  20 C20           -6.4575    -8.7489     0.7311 C.ar    
  21 C21           -6.5181    -7.3855     0.5221 C.ar    
  22 N22           -5.4165    -6.6681     0.4117 N.ar    
  23 Cl23          -5.0964   -11.0805     1.0820 Cl      
  24 H24           -2.2214     0.2047    -2.1489 H       
  25 H25           -2.7372    -0.3492     2.0675 H       
  26 H26           -5.7226     1.3813    -0.2465 H       
  27 H27            1.1714    -2.1132     0.1941 H       
  28 H28            1.2712    -4.5673     0.3557 H       
  29 H29           -3.1035    -2.3972     0.0966 H       
  30 H30           -2.2008    -6.8354     0.3346 H       
  31 H31           -3.0983    -9.0372     0.7587 H       
  32 H32           -7.3646    -9.3276     0.8240 H       
  33 H33           -7.4799    -6.8994     0.4517 H       
@<TRIPOS>BOND
   1    1    2 ar
   2    1    6 ar
   3    1   24 1
   4    2    3 ar
   5    2   15 1
   6    3    4 ar
   7    3   25 1
   8    4    5 ar
   9    5    6 ar
  10    5   26 1
  11    7    8 ar
  12    7   12 ar
  13    7   15 1
  14    8    9 ar
  15    8   27 1
  16    9   10 ar
  17    9   28 1
  18   10   11 ar
  19   11   12 ar
  20   11   13 1
  21   12   29 1
  22   13   14 am
  23   13   16 2
  24   14   17 1
  25   14   30 1
  26   17   18 ar
  27   17   22 ar
  28   18   19 ar
  29   18   31 1
  30   19   20 ar
  31   19   23 1
  32   20   21 ar
  33   20   32 1
  34   21   22 ar
  35   21   33 1

#	End of record

