#	Name: ASD01880388
#	Creating user name:	WinNT
#	Creation time:	15. 06. 2019 19:40

#	Modifying user name:	WinNT
#	Modification time:	15. 06. 2019 19:40

#	Program:	/corina/corina34_cracker 3.40 0067  02.08.2006

@<TRIPOS>MOLECULE
ASD01880388
  41   42    0    0    0
SMALL
NO_CHARGES


@<TRIPOS>ATOM
   1 C1            -0.8211     1.4696     0.4133 C.ar    
   2 N2            -0.6444     0.1619     0.3570 N.ar    
   3 C3             0.5675    -0.3699     0.4160 C.ar    
   4 C4             1.6888     0.4897     0.5419 C.ar    
   5 C5             1.4459     1.8650     0.5970 C.ar    
   6 N6             0.1837     2.3066     0.5296 N.ar    
   7 C7             3.1044     0.1841     0.6279 C.2     
   8 C8             3.8919     1.2360     0.7402 C.2     
   9 S9             2.9694     2.7273     0.7524 S.3     
  10 C10            5.3936     1.1655     0.8449 C.3     
  11 N11            0.7368    -1.7414     0.3563 N.pl3   
  12 C12            6.0055     1.2174    -0.5565 C.3     
  13 C13           -0.4295    -2.6184     0.2267 C.3     
  14 C14            0.0313    -4.0767     0.1834 C.3     
  15 C15           -1.6370    -7.8352     3.1442 C.3     
  16 C16           -0.3278    -7.1057     2.9861 C.2     
  17 C17           -0.1760    -6.2175     2.0097 C.2     
  18 C18           -1.2858    -5.9462     1.0829 C.2     
  19 C19           -1.1721    -4.9838     0.1739 C.2     
  20 C20            0.8579    -4.3129    -1.0823 C.3     
  21 H21           -1.8251     1.8637     0.3574 H       
  22 H22            3.4839    -0.8267     0.6023 H       
  23 H23            5.7570     2.0092     1.4315 H       
  24 H24            5.6804     0.2337     1.3323 H       
  25 H25            1.6277    -2.1225     0.4001 H       
  26 H26            5.7186     2.1492    -1.0439 H       
  27 H27            7.0916     1.1664    -0.4808 H       
  28 H28            5.6421     0.3737    -1.1431 H       
  29 H29           -1.0911    -2.4717     1.0805 H       
  30 H30           -0.9640    -2.3788    -0.6925 H       
  31 H31            0.6411    -4.2913     1.0609 H       
  32 H32           -1.5728    -8.5171     3.9921 H       
  33 H33           -2.4360    -7.1144     3.3174 H       
  34 H34           -1.8490    -8.4018     2.2375 H       
  35 H35            0.4869    -7.3049     3.6665 H       
  36 H36            0.7622    -5.6947     1.8964 H       
  37 H37           -2.1930    -6.5294     1.1413 H       
  38 H38           -1.9422    -4.8515    -0.5717 H       
  39 H39            0.2481    -4.0984    -1.9599 H       
  40 H40            1.7283    -3.6569    -1.0754 H       
  41 H41            1.1862    -5.3519    -1.1132 H       
@<TRIPOS>BOND
   1    1    2 ar
   2    1    6 ar
   3    1   21 1
   4    2    3 ar
   5    3    4 ar
   6    3   11 1
   7    4    5 ar
   8    4    7 1
   9    5    6 ar
  10    5    9 1
  11    7    8 2
  12    7   22 1
  13    8    9 1
  14    8   10 1
  15   10   12 1
  16   10   23 1
  17   10   24 1
  18   11   13 1
  19   11   25 1
  20   12   26 1
  21   12   27 1
  22   12   28 1
  23   13   14 1
  24   13   29 1
  25   13   30 1
  26   14   20 1
  27   14   19 1
  28   14   31 1
  29   15   16 1
  30   15   32 1
  31   15   33 1
  32   15   34 1
  33   16   17 2
  34   16   35 1
  35   17   18 1
  36   17   36 1
  37   18   19 2
  38   18   37 1
  39   19   38 1
  40   20   39 1
  41   20   40 1
  42   20   41 1

#	End of record

