#	Name: ASD00170806
#	Creating user name:	WinNT
#	Creation time:	15. 06. 2019 18:32

#	Modifying user name:	WinNT
#	Modification time:	15. 06. 2019 18:32

#	Program:	/corina/corina34_cracker 3.40 0067  02.08.2006

@<TRIPOS>MOLECULE
ASD00170806
  48   52    0    0    0
SMALL
NO_CHARGES


@<TRIPOS>ATOM
   1 C1             0.4932     0.6447     1.0242 C.2     
   2 N2            -0.0572     0.1222    -0.0865 N.am    
   3 C3             0.5935     0.5346    -1.1893 C.2     
   4 C4             1.6970     1.4278    -0.7786 C.ar    
   5 C5             2.6769     2.1322    -1.4597 C.ar    
   6 C6             3.5878     2.9009    -0.7521 C.ar    
   7 C7             3.5256     2.9691     0.6271 C.ar    
   8 C8             2.5510     2.2701     1.3221 C.ar    
   9 C9             1.6332     1.4978     0.6283 C.ar    
  10 O10            0.1136     0.4519     2.1615 O.2     
  11 O11            0.3204     0.2244    -2.3312 O.2     
  12 C12           -1.1516    -0.7297    -0.0937 C.2     
  13 C13           -1.0776    -2.1030    -0.1285 C.2     
  14 C14           -2.3253    -2.7325    -0.1283 C.2     
  15 C15           -3.3598    -1.8807    -0.0943 C.2     
  16 S16           -2.7801    -0.2233    -0.0534 S.3     
  17 C17           -4.7832    -2.2790    -0.0867 C.ar    
  18 C18           -5.2293    -3.2692     0.7903 C.ar    
  19 C19           -6.5592    -3.6359     0.7926 C.ar    
  20 C20           -7.4501    -3.0247    -0.0717 C.ar    
  21 C21           -7.0143    -2.0428    -0.9438 C.ar    
  22 C22           -5.6882    -1.6626    -0.9524 C.ar    
  23 C23           -2.4923    -4.2298    -0.1638 C.3     
  24 C24            0.1908    -2.8371    -0.1629 C.2     
  25 C25            0.8909    -3.1628     1.0978 C.ar    
  26 C26            2.1551    -3.7547     1.0648 C.ar    
  27 C27            2.8030    -4.0563     2.2441 C.ar    
  28 C28            2.2021    -3.7735     3.4597 C.ar    
  29 C29            0.9479    -3.1868     3.4988 C.ar    
  30 C30            0.2929    -2.8745     2.3262 C.ar    
  31 O31            0.6677    -3.1784    -1.2296 O.2     
  32 Cl32           3.0239    -4.1566     4.9401 Cl      
  33 H33            2.7308     2.0821    -2.5372 H       
  34 H34            4.3519     3.4501    -1.2822 H       
  35 H35            4.2416     3.5710     1.1671 H       
  36 H36            2.5074     2.3268     2.3997 H       
  37 H37           -4.5349    -3.7473     1.4652 H       
  38 H38           -6.9056    -4.4021     1.4704 H       
  39 H39           -8.4902    -3.3155    -0.0659 H       
  40 H40           -7.7147    -1.5701    -1.6164 H       
  41 H41           -5.3503    -0.8927    -1.6302 H       
  42 H42           -2.4362    -4.6258     0.8501 H       
  43 H43           -3.4613    -4.4771    -0.5974 H       
  44 H44           -1.7002    -4.6694    -0.7700 H       
  45 H45            2.6243    -3.9763     0.1176 H       
  46 H46            3.7809    -4.5141     2.2198 H       
  47 H47            0.4843    -2.9690     4.4496 H       
  48 H48           -0.6828    -2.4126     2.3579 H       
@<TRIPOS>BOND
   1    1    2 am
   2    1    9 1
   3    1   10 2
   4    2    3 am
   5    2   12 1
   6    3    4 1
   7    3   11 2
   8    4    5 ar
   9    4    9 ar
  10    5    6 ar
  11    5   33 1
  12    6    7 ar
  13    6   34 1
  14    7    8 ar
  15    7   35 1
  16    8    9 ar
  17    8   36 1
  18   12   13 2
  19   12   16 1
  20   13   14 1
  21   13   24 1
  22   14   15 2
  23   14   23 1
  24   15   16 1
  25   15   17 1
  26   17   18 ar
  27   17   22 ar
  28   18   19 ar
  29   18   37 1
  30   19   20 ar
  31   19   38 1
  32   20   21 ar
  33   20   39 1
  34   21   22 ar
  35   21   40 1
  36   22   41 1
  37   23   42 1
  38   23   43 1
  39   23   44 1
  40   24   25 1
  41   24   31 2
  42   25   26 ar
  43   25   30 ar
  44   26   27 ar
  45   26   45 1
  46   27   28 ar
  47   27   46 1
  48   28   29 ar
  49   28   32 1
  50   29   30 ar
  51   29   47 1
  52   30   48 1

#	End of record

