#	Name: ASD01882667
#	Creating user name:	WinNT
#	Creation time:	15. 06. 2019 19:45

#	Modifying user name:	WinNT
#	Modification time:	15. 06. 2019 19:45

#	Program:	/corina/corina34_cracker 3.40 0067  02.08.2006

@<TRIPOS>MOLECULE
ASD01882667
  53   56    0    0    0
SMALL
NO_CHARGES


@<TRIPOS>ATOM
   1 C1             0.7325     1.4200     1.0811 C.2     
   2 C2             0.7681     0.0147     1.0979 C.2     
   3 C3             1.2066    -0.6546    -0.0130 C.2     
   4 C4             1.6135     0.0753    -1.1506 C.2     
   5 C5             1.5712     1.4222    -1.1448 C.2     
   6 N6             1.1358     2.0991    -0.0428 N.pl3   
   7 N7             0.5215     3.5067     1.4678 N.2     
   8 N8             0.3653     2.3319     1.9687 N.2     
   9 C9             0.9860     3.4230     0.2489 C.2     
  10 N10            1.2514    -2.0467    -0.0204 N.pl3   
  11 C11            2.5331    -2.7538    -0.1467 C.3     
  12 C12            2.4377    -3.7432    -1.3123 C.3     
  13 C13            1.2317    -4.6611    -1.0996 C.3     
  14 C14           -0.0494    -3.8245    -1.0701 C.3     
  15 C15            0.0184    -2.8360     0.1039 C.3     
  16 C16            1.1545    -5.6580    -2.2271 C.ar    
  17 C17            1.2244    -7.0174    -1.9581 C.ar    
  18 C18            1.1530    -7.9324    -2.9981 C.ar    
  19 C19            1.0126    -7.4884    -4.2989 C.ar    
  20 C20            0.9436    -6.1335    -4.5644 C.ar    
  21 C21            1.0084    -5.2194    -3.5287 C.ar    
  22 O22            1.3630    -7.4516    -0.6778 O.3     
  23 C23            1.4281    -8.8647    -0.4754 C.3     
  24 C24            1.2967     4.5782    -0.6677 C.3     
  25 O25            0.1348     4.9054    -1.4325 O.3     
  26 C26            0.3230     5.9942    -2.3386 C.3     
  27 C27           -0.9783     6.2550    -3.0998 C.3     
  28 Cl28           0.2630    -0.8607     2.5093 Cl      
  29 H29            1.9606    -0.4479    -2.0294 H       
  30 H30            1.8851     1.9710    -2.0203 H       
  31 H31            3.3292    -2.0352    -0.3416 H       
  32 H32            2.7442    -3.2950     0.7756 H       
  33 H33            2.3169    -3.1945    -2.2463 H       
  34 H34            3.3473    -4.3421    -1.3566 H       
  35 H35            1.3412    -5.1911    -0.1534 H       
  36 H36           -0.1467    -3.2750    -2.0064 H       
  37 H37           -0.9099    -4.4812    -0.9419 H       
  38 H38            0.0286    -3.3837     1.0463 H       
  39 H39           -0.8453    -2.1717     0.0744 H       
  40 H40            1.2076    -8.9911    -2.7913 H       
  41 H41            0.9570    -8.2005    -5.1090 H       
  42 H42            0.8346    -5.7884    -5.5819 H       
  43 H43            0.9494    -4.1616    -3.7382 H       
  44 H44            0.5125    -9.3271    -0.8440 H       
  45 H45            2.2831    -9.2702    -1.0164 H       
  46 H46            1.5384    -9.0747     0.5884 H       
  47 H47            1.5964     5.4422    -0.0745 H       
  48 H48            2.1081     4.3002    -1.3404 H       
  49 H49            0.6025     6.8875    -1.7801 H       
  50 H50            1.1142     5.7456    -3.0460 H       
  51 H51           -1.2578     5.3616    -3.6583 H       
  52 H52           -1.7694     6.5036    -2.3925 H       
  53 H53           -0.8347     7.0855    -3.7910 H       
@<TRIPOS>BOND
   1    1    2 1
   2    1    6 1
   3    1    8 2
   4    2    3 2
   5    2   28 1
   6    3    4 1
   7    3   10 1
   8    4    5 2
   9    4   29 1
  10    5    6 1
  11    5   30 1
  12    6    9 1
  13    7    8 1
  14    7    9 2
  15    9   24 1
  16   10   11 1
  17   10   15 1
  18   11   12 1
  19   11   31 1
  20   11   32 1
  21   12   13 1
  22   12   33 1
  23   12   34 1
  24   13   14 1
  25   13   16 1
  26   13   35 1
  27   14   15 1
  28   14   36 1
  29   14   37 1
  30   15   38 1
  31   15   39 1
  32   16   17 ar
  33   16   21 ar
  34   17   18 ar
  35   17   22 1
  36   18   19 ar
  37   18   40 1
  38   19   20 ar
  39   19   41 1
  40   20   21 ar
  41   20   42 1
  42   21   43 1
  43   22   23 1
  44   23   44 1
  45   23   45 1
  46   23   46 1
  47   24   25 1
  48   24   47 1
  49   24   48 1
  50   25   26 1
  51   26   27 1
  52   26   49 1
  53   26   50 1
  54   27   51 1
  55   27   52 1
  56   27   53 1

#	End of record

