#	Name: ASD08150933
#	Creating user name:	WinNT
#	Creation time:	15. 06. 2019 21:16

#	Modifying user name:	WinNT
#	Modification time:	15. 06. 2019 21:16

#	Program:	/corina/corina34_cracker 3.40 0067  02.08.2006

@<TRIPOS>MOLECULE
ASD08150933
  49   53    0    0    0
SMALL
NO_CHARGES


@<TRIPOS>ATOM
   1 N1            -0.2146     1.2405    -0.0477 N.3     
   2 C2            -0.3772    -0.2190    -0.1795 C.3     
   3 C3             1.0353    -0.8402    -0.1580 C.3     
   4 C4             1.8839     0.2459     0.5541 C.3     
   5 C5             1.2294     1.5482     0.0296 C.3     
   6 C6             1.0408    -2.0938     0.6134 C.1     
   7 N7             1.0451    -3.0613     1.2087 N.1     
   8 N8             0.5986     0.7911    -2.6935 N.ar    
   9 C9             1.0022     0.5577    -3.9187 C.ar    
  10 C10            0.4326     1.2046    -5.0134 C.ar    
  11 C11           -0.5738     2.1081    -4.8231 C.ar    
  12 C12           -1.0044     2.3554    -3.5058 C.ar    
  13 C13           -2.0348     3.2712    -3.2344 C.ar    
  14 C14           -2.4293     3.4881    -1.9480 C.ar    
  15 C15           -1.8257     2.8138    -0.8908 C.ar    
  16 C16           -0.8117     1.9087    -1.1171 C.ar    
  17 C17           -0.3810     1.6628    -2.4391 C.ar    
  18 C18           -2.2861     3.0778     0.5197 C.3     
  19 C19           -1.4318     4.1876     1.1357 C.3     
  20 N20           -3.6907     3.4939     0.5051 N.pl3   
  21 N21           -6.6585     4.2660     0.7214 N.2     
  22 C22           -7.8470     4.3896     1.2369 C.2     
  23 N23           -7.8690     3.8536     2.4902 N.pl3   
  24 C24           -6.6115     3.3726     2.7540 C.ar    
  25 N25           -6.0384     2.7592     3.7842 N.ar    
  26 C26           -4.7701     2.4096     3.7360 C.ar    
  27 N27           -4.0097     2.6446     2.6824 N.ar    
  28 C28           -4.4953     3.2526     1.6049 C.ar    
  29 C29           -5.8446     3.6447     1.6084 C.ar    
  30 Cl30          -2.8037     4.1255    -4.5354 Cl      
  31 H31           -0.9641    -0.6036     0.6546 H       
  32 H32           -0.8711    -0.4534    -1.1225 H       
  33 H33            1.3976    -1.0088    -1.1721 H       
  34 H34            1.7872     0.1691     1.6371 H       
  35 H35            2.9293     0.1851     0.2517 H       
  36 H36            1.6178     1.7970    -0.9580 H       
  37 H37            1.4059     2.3685     0.7254 H       
  38 H38            1.7973    -0.1543    -4.0839 H       
  39 H39            0.7868     0.9921    -6.0113 H       
  40 H40           -1.0265     2.6190    -5.6600 H       
  41 H41           -3.2220     4.1933    -1.7461 H       
  42 H42           -2.1826     2.1686     1.1118 H       
  43 H43           -1.7648     4.3786     2.1558 H       
  44 H44           -0.3867     3.8781     1.1465 H       
  45 H45           -1.5353     5.0969     0.5435 H       
  46 H46           -4.0567     3.9385    -0.2755 H       
  47 H47           -8.6912     4.8495     0.7447 H       
  48 H48           -8.6335     3.8190     3.0862 H       
  49 H49           -4.3352     1.9126     4.5905 H       
@<TRIPOS>BOND
   1    1    2 1
   2    1    5 1
   3    1   16 1
   4    2    3 1
   5    2   31 1
   6    2   32 1
   7    3    4 1
   8    3    6 1
   9    3   33 1
  10    4    5 1
  11    4   34 1
  12    4   35 1
  13    5   36 1
  14    5   37 1
  15    6    7 3
  16    8    9 ar
  17    8   17 ar
  18    9   10 ar
  19    9   38 1
  20   10   11 ar
  21   10   39 1
  22   11   12 ar
  23   11   40 1
  24   12   13 ar
  25   12   17 ar
  26   13   14 ar
  27   13   30 1
  28   14   15 ar
  29   14   41 1
  30   15   16 ar
  31   15   18 1
  32   16   17 ar
  33   18   19 1
  34   18   20 1
  35   18   42 1
  36   19   43 1
  37   19   44 1
  38   19   45 1
  39   20   28 1
  40   20   46 1
  41   21   22 2
  42   21   29 1
  43   22   23 1
  44   22   47 1
  45   23   24 1
  46   23   48 1
  47   24   25 ar
  48   24   29 ar
  49   25   26 ar
  50   26   27 ar
  51   26   49 1
  52   27   28 ar
  53   28   29 ar

#	End of record

