#	Name: ASD01840032
#	Creating user name:	WinNT
#	Creation time:	15. 06. 2019 19:37

#	Modifying user name:	WinNT
#	Modification time:	15. 06. 2019 19:37

#	Program:	/corina/corina34_cracker 3.40 0067  02.08.2006

@<TRIPOS>MOLECULE
ASD01840032
  34   36    0    0    0
SMALL
NO_CHARGES


@<TRIPOS>ATOM
   1 C1             0.6082     1.4763    -1.3264 C.ar    
   2 C2             1.0150     0.3265    -1.9642 C.ar    
   3 C3             2.3137    -0.1282    -1.7877 C.ar    
   4 N4             3.1608     0.5197    -1.0228 N.ar    
   5 C5             2.8253     1.6407    -0.3779 C.ar    
   6 C6             1.5332     2.1623    -0.5059 C.ar    
   7 S7             3.7866     2.6598     0.6867 S.3     
   8 C8             2.4579     3.7712     0.9513 C.2     
   9 C9             1.3513     3.3808     0.2639 C.2     
  10 C10           -0.7945     1.9976    -1.5041 C.3     
  11 C11            2.7592    -1.3874    -2.4856 C.3     
  12 N12            0.1564     4.0818     0.2963 N.pl3   
  13 C13            2.5273     4.9224     1.7709 C.2     
  14 C14            3.7333     5.1768     2.5877 C.ar    
  15 O15            1.5933     5.7041     1.8038 O.2     
  16 C16            4.1292     6.4874     2.8632 C.ar    
  17 C17            5.2551     6.7189     3.6256 C.ar    
  18 C18            5.9937     5.6520     4.1178 C.ar    
  19 C19            5.6043     4.3498     3.8467 C.ar    
  20 C20            4.4769     4.1076     3.0908 C.ar    
  21 Cl21           5.7492     8.3472     3.9695 Cl      
  22 F22            7.0963     5.8836     4.8633 F       
  23 H23            0.3289    -0.2174    -2.5965 H       
  24 H24           -1.4179     1.6514    -0.6798 H       
  25 H25           -0.7785     3.0874    -1.5148 H       
  26 H26           -1.2017     1.6310    -2.4464 H       
  27 H27            3.1711    -1.1350    -3.4627 H       
  28 H28            3.5225    -1.8841    -1.8867 H       
  29 H29            1.9060    -2.0538    -2.6122 H       
  30 H30           -0.6686     3.6466     0.0300 H       
  31 H31            0.1450     5.0077     0.5851 H       
  32 H32            3.5551     7.3180     2.4798 H       
  33 H33            6.1828     3.5231     4.2318 H       
  34 H34            4.1719     3.0923     2.8844 H       
@<TRIPOS>BOND
   1    1    2 ar
   2    1    6 ar
   3    1   10 1
   4    2    3 ar
   5    2   23 1
   6    3    4 ar
   7    3   11 1
   8    4    5 ar
   9    5    7 1
  10    5    6 ar
  11    6    9 1
  12    7    8 1
  13    8    9 2
  14    8   13 1
  15    9   12 1
  16   10   24 1
  17   10   25 1
  18   10   26 1
  19   11   27 1
  20   11   28 1
  21   11   29 1
  22   12   30 1
  23   12   31 1
  24   13   14 1
  25   13   15 2
  26   14   16 ar
  27   14   20 ar
  28   16   17 ar
  29   16   32 1
  30   17   18 ar
  31   17   21 1
  32   18   19 ar
  33   18   22 1
  34   19   20 ar
  35   19   33 1
  36   20   34 1

#	End of record

