#	Name: ASD01209093
#	Creating user name:	WinNT
#	Creation time:	15. 06. 2019 19:10

#	Modifying user name:	WinNT
#	Modification time:	15. 06. 2019 19:10

#	Program:	/corina/corina34_cracker 3.40 0067  02.08.2006

@<TRIPOS>MOLECULE
ASD01209093
  64   66    0    0    0
SMALL
NO_CHARGES


@<TRIPOS>ATOM
   1 C1             0.0597     1.1608     0.4669 C.3     
   2 C2             2.2149    -1.2727    -3.6940 C.ar    
   3 S3             0.2513    -0.6382     0.3350 S.o2    
   4 O4             1.2123    -1.1072     1.2709 O.2     
   5 O5            -1.0168    -1.2670     0.2097 O.2     
   6 C6             2.8686    -1.4839    -5.0353 C.3     
   7 C7             2.4493    -0.3847    -5.9771 C.2     
   8 N8             3.0003    -0.3022    -7.2044 N.am    
   9 O9             1.6161     0.4256    -5.6307 O.2     
  10 C10            2.4370    -2.8364    -5.6056 C.3     
  11 C11            2.9633    -3.9592    -4.7094 C.3     
  12 C12            2.4359    -5.3181    -5.2023 C.3     
  13 C13            3.6727    -6.1636    -5.5702 C.3     
  14 C14            4.8201    -5.5411    -4.7365 C.3     
  15 C15            4.5021    -4.0264    -4.7950 C.3     
  16 C16            2.9937    -1.0981    -2.5653 C.ar    
  17 C17            2.3941    -0.9048    -1.3349 C.ar    
  18 C18            1.0156    -0.8852    -1.2333 C.ar    
  19 C19            0.2368    -1.0598    -2.3619 C.ar    
  20 C20            0.8365    -1.2479    -3.5931 C.ar    
  21 C21            2.5454     0.6513    -8.1077 C.2     
  22 S22            1.2991     1.7795    -7.7962 S.3     
  23 P23            2.9773     2.1375   -11.7317 P.3     
  24 O24            2.1765     1.3293   -12.6782 O.2     
  25 O25            4.5368     1.7765   -11.9038 O.3     
  26 O26            2.7516     3.7020   -12.0376 O.3     
  27 C27            5.2202     1.8546   -13.1564 C.3     
  28 C28            6.6822     1.4457   -12.9662 C.3     
  29 C29            2.9691     4.2826   -13.3251 C.3     
  30 C30            2.6631     5.7805   -13.2674 C.3     
  31 C31            1.4863     2.4491    -9.4149 C.2     
  32 C32            2.4559     1.7722   -10.0331 C.2     
  33 N33            3.0082     0.8184    -9.3069 N.2     
  34 H34            1.0393     1.6355     0.4124 H       
  35 H35           -0.5644     1.5206    -0.3511 H       
  36 H36           -0.4111     1.4072     1.4186 H       
  37 H37            3.9522    -1.4681    -4.9179 H       
  38 H38            3.7142    -0.9082    -7.4572 H       
  39 H39            1.3488    -2.8833    -5.6456 H       
  40 H40            2.8429    -2.9532    -6.6105 H       
  41 H41            2.6530    -3.7900    -3.6783 H       
  42 H42            1.8704    -5.8088    -4.4101 H       
  43 H43            1.8051    -5.1777    -6.0800 H       
  44 H44            3.5194    -7.2058    -5.2899 H       
  45 H45            3.8875    -6.0818    -6.6357 H       
  46 H46            4.7908    -5.9026    -3.7086 H       
  47 H47            5.7872    -5.7508    -5.1934 H       
  48 H48            4.8509    -3.5994    -5.7353 H       
  49 H49            4.9542    -3.5087    -3.9489 H       
  50 H50            4.0707    -1.1134    -2.6448 H       
  51 H51            3.0026    -0.7691    -0.4530 H       
  52 H52           -0.8402    -1.0448    -2.2824 H       
  53 H53            0.2280    -1.3843    -4.4749 H       
  54 H54            4.7452     1.1833   -13.8719 H       
  55 H55            5.1748     2.8769   -13.5319 H       
  56 H56            7.1571     2.1170   -12.2507 H       
  57 H57            6.7276     0.4234   -12.5906 H       
  58 H58            7.2034     1.5053   -13.9216 H       
  59 H59            4.0082     4.1351   -13.6194 H       
  60 H60            2.3139     3.8057   -14.0541 H       
  61 H61            1.6239     5.9280   -12.9731 H       
  62 H62            3.3183     6.2574   -12.5384 H       
  63 H63            2.8289     6.2234   -14.2495 H       
  64 H64            0.9159     3.2650    -9.8337 H       
@<TRIPOS>BOND
   1    1    3 1
   2    1   34 1
   3    1   35 1
   4    1   36 1
   5    2    6 1
   6    2   16 ar
   7    2   20 ar
   8    3    4 2
   9    3    5 2
  10    3   18 1
  11    6    7 1
  12    6   10 1
  13    6   37 1
  14    7    8 am
  15    7    9 2
  16    8   21 1
  17    8   38 1
  18   10   11 1
  19   10   39 1
  20   10   40 1
  21   11   12 1
  22   11   15 1
  23   11   41 1
  24   12   13 1
  25   12   42 1
  26   12   43 1
  27   13   14 1
  28   13   44 1
  29   13   45 1
  30   14   15 1
  31   14   46 1
  32   14   47 1
  33   15   48 1
  34   15   49 1
  35   16   17 ar
  36   16   50 1
  37   17   18 ar
  38   17   51 1
  39   18   19 ar
  40   19   20 ar
  41   19   52 1
  42   20   53 1
  43   21   22 1
  44   21   33 2
  45   22   31 1
  46   23   24 2
  47   23   25 1
  48   23   26 1
  49   23   32 1
  50   25   27 1
  51   26   29 1
  52   27   28 1
  53   27   54 1
  54   27   55 1
  55   28   56 1
  56   28   57 1
  57   28   58 1
  58   29   30 1
  59   29   59 1
  60   29   60 1
  61   30   61 1
  62   30   62 1
  63   30   63 1
  64   31   32 2
  65   31   64 1
  66   32   33 1

#	End of record

