#	Name: ASD01948289
#	Creating user name:	WinNT
#	Creation time:	15. 06. 2019 20:14

#	Modifying user name:	WinNT
#	Modification time:	15. 06. 2019 20:14

#	Program:	/corina/corina34_cracker 3.40 0067  02.08.2006

@<TRIPOS>MOLECULE
ASD01948289
  56   58    0    0    0
SMALL
NO_CHARGES


@<TRIPOS>ATOM
   1 C1             3.1236     0.4898     4.4914 C.ar    
   2 C2             4.3611     0.2377     5.0569 C.ar    
   3 C3             5.5099     0.3577     4.2963 C.ar    
   4 C4             5.4262     0.7299     2.9683 C.ar    
   5 C5             4.1870     0.9835     2.3963 C.ar    
   6 C6             3.0325     0.8622     3.1632 C.ar    
   7 N7             5.6364     0.7255    -0.6410 N.am    
   8 C8             5.2478     1.6033     0.3274 C.2     
   9 N9             4.0994     1.3610     1.0521 N.pl3   
  10 C10            6.7531     0.9419    -1.3602 C.2     
  11 C11            7.5374     2.0747    -1.1260 C.2     
  12 C12            7.1610     2.9752    -0.1494 C.2     
  13 C13            5.9993     2.7351     0.5875 C.2     
  14 N14            5.5956     3.6390     1.5876 N.am    
  15 I15            4.4948    -0.3263     7.0701 I       
  16 O16            7.0838     0.1425    -2.2233 O.2     
  17 F17            1.8243     1.1075     2.6107 F       
  18 C18            4.8312    -0.4712    -0.8978 C.3     
  19 S19            6.5404     4.9501     1.9492 S.o2    
  20 O20            6.8734     5.5020     0.6828 O.2     
  21 O21            5.7719     5.6870     2.8903 O.2     
  22 C22            8.0109     4.2433     2.7422 C.3     
  23 C23            8.7872     2.3115    -1.9341 C.3     
  24 C24            7.7892     3.2648     3.8973 C.3     
  25 C25            8.2733     2.7496     2.5404 C.3     
  26 C26            9.2258     5.1697     2.8244 C.3     
  27 C27            9.6148     5.6268     1.4170 C.3     
  28 O28            8.7074     6.6394     0.9773 O.3     
  29 C29           11.0369     6.1908     1.4388 C.3     
  30 O30           11.4432     6.5098     0.1065 O.3     
  31 C31            3.8066    -0.1710    -1.9937 C.3     
  32 F32            4.4652     0.3197    -3.1262 F       
  33 F33            3.1208    -1.3445    -2.3250 F       
  34 F34            2.8968     0.7862    -1.5319 F       
  35 H35            2.2280     0.3913     5.0869 H       
  36 H36            6.4740     0.1605     4.7412 H       
  37 H37            6.3242     0.8239     2.3758 H       
  38 H38            3.2310     1.4523     0.6296 H       
  39 H39            7.7579     3.8546     0.0424 H       
  40 H40            4.7638     3.4941     2.0652 H       
  41 H41            5.4815    -1.2840    -1.2212 H       
  42 H42            4.3120    -0.7625     0.0152 H       
  43 H43            8.5405     2.8915    -2.8233 H       
  44 H44            9.5109     2.8603    -1.3315 H       
  45 H45            9.2142     1.3538    -2.2319 H       
  46 H46            8.5091     3.2807     4.7156 H       
  47 H47            6.7597     3.0457     4.1807 H       
  48 H48            7.5623     2.1915     1.9312 H       
  49 H49            9.3116     2.4265     2.4661 H       
  50 H50            8.9792     6.0392     3.4336 H       
  51 H51           10.0609     4.6345     3.2764 H       
  52 H52            9.5709     4.7782     0.7343 H       
  53 H53            8.6937     7.4262     1.5393 H       
  54 H54           11.0610     7.0919     2.0516 H       
  55 H55           11.7159     5.4482     1.8578 H       
  56 H56           12.3371     6.8733     0.0443 H       
@<TRIPOS>BOND
   1    1    2 ar
   2    1    6 ar
   3    1   35 1
   4    2    3 ar
   5    2   15 1
   6    3    4 ar
   7    3   36 1
   8    4    5 ar
   9    4   37 1
  10    5    6 ar
  11    5    9 1
  12    6   17 1
  13    7    8 1
  14    7   10 am
  15    7   18 1
  16    8    9 1
  17    8   13 2
  18    9   38 1
  19   10   11 1
  20   10   16 2
  21   11   12 2
  22   11   23 1
  23   12   13 1
  24   12   39 1
  25   13   14 1
  26   14   19 am
  27   14   40 1
  28   18   31 1
  29   18   41 1
  30   18   42 1
  31   19   20 2
  32   19   21 2
  33   19   22 1
  34   22   24 1
  35   22   26 1
  36   22   25 1
  37   23   43 1
  38   23   44 1
  39   23   45 1
  40   24   25 1
  41   24   46 1
  42   24   47 1
  43   25   48 1
  44   25   49 1
  45   26   27 1
  46   26   50 1
  47   26   51 1
  48   27   28 1
  49   27   29 1
  50   27   52 1
  51   28   53 1
  52   29   30 1
  53   29   54 1
  54   29   55 1
  55   30   56 1
  56   31   32 1
  57   31   33 1
  58   31   34 1

#	End of record

