#	Name: ASD03430656
#	Creating user name:	WinNT
#	Creation time:	15. 06. 2019 20:41

#	Modifying user name:	WinNT
#	Modification time:	15. 06. 2019 20:41

#	Program:	/corina/corina34_cracker 3.40 0067  02.08.2006

@<TRIPOS>MOLECULE
ASD03430656
  53   58    0    0    0
SMALL
NO_CHARGES


@<TRIPOS>ATOM
   1 C1            -0.0167     1.3830     0.0096 C.ar    
   2 C2             0.0021    -0.0041     0.0020 C.ar    
   3 C3             1.2035    -0.6786    -0.0136 C.ar    
   4 C4             2.4078     0.0189    -0.0127 C.ar    
   5 C5             2.3813     1.4106    -0.0092 C.ar    
   6 C6             1.1792     2.0860     0.0020 C.ar    
   7 O7             3.4724    -0.8334    -0.0036 O.3     
   8 C8             1.5555    -2.1417    -0.0461 C.3     
   9 C9             3.0402    -2.1382    -0.4350 C.3     
  10 C10            0.4349    -3.8532     1.0199 C.ar    
  11 C11            1.3250    -2.8129     1.2754 C.ar    
  12 C12            0.7201    -2.9062    -1.0322 C.2     
  13 N13            0.1008    -3.8805    -0.3362 N.am    
  14 O14            0.6220    -2.6898    -2.2216 O.2     
  15 C15            1.7972    -2.5924     2.5496 C.ar    
  16 C16            1.3880    -3.4066     3.5911 C.ar    
  17 C17            0.5038    -4.4414     3.3489 C.ar    
  18 C18            0.0277    -4.6671     2.0738 C.ar    
  19 C19           -0.8162    -4.8549    -0.9327 C.3     
  20 C20           -2.2225    -4.3154    -0.8858 C.2     
  21 C21           -2.7950    -3.5785    -1.8384 C.2     
  22 C22           -4.0993    -3.1952    -1.5750 C.2     
  23 C23           -4.5852    -3.6219    -0.4071 C.2     
  24 S24           -3.3616    -4.5679     0.4303 S.3     
  25 Cl25          -6.1828    -3.2986     0.1904 Cl      
  26 O26           -1.2016     2.0502     0.0189 O.3     
  27 C27           -2.5406     4.0390     0.0360 C.ar    
  28 C28           -3.1764     4.2898     1.2376 C.ar    
  29 C29           -4.4572     4.8098     1.2465 C.ar    
  30 C30           -5.1020     5.0794     0.0538 C.ar    
  31 C31           -4.4659     4.8295    -1.1477 C.ar    
  32 C32           -3.1856     4.3081    -1.1566 C.ar    
  33 C33           -1.1420     3.4780     0.0264 C.3     
  34 H34           -0.9262    -0.5560     0.0087 H       
  35 H35            3.3082     1.9649    -0.0153 H       
  36 H36            1.1686     3.1659     0.0048 H       
  37 H37            3.1583    -2.2484    -1.5130 H       
  38 H38            3.5815    -2.9207     0.0968 H       
  39 H39            2.4879    -1.7835     2.7365 H       
  40 H40            1.7588    -3.2342     4.5907 H       
  41 H41            0.1845    -5.0766     4.1619 H       
  42 H42           -0.6629    -5.4774     1.8926 H       
  43 H43           -0.5306    -5.0354    -1.9690 H       
  44 H44           -0.7668    -5.7896    -0.3742 H       
  45 H45           -2.2803    -3.3014    -2.7465 H       
  46 H46           -4.6791    -2.5965    -2.2619 H       
  47 H47           -2.6727     4.0792     2.1694 H       
  48 H48           -4.9542     5.0051     2.1852 H       
  49 H49           -6.1030     5.4850     0.0608 H       
  50 H50           -4.9699     5.0394    -2.0795 H       
  51 H51           -2.6889     4.1122    -2.0954 H       
  52 H52           -0.6093     3.8147     0.9157 H       
  53 H53           -0.6177     3.8244    -0.8642 H       
@<TRIPOS>BOND
   1    1    2 ar
   2    1    6 ar
   3    1   26 1
   4    2    3 ar
   5    2   34 1
   6    3    4 ar
   7    3    8 1
   8    4    5 ar
   9    4    7 1
  10    5    6 ar
  11    5   35 1
  12    6   36 1
  13    7    9 1
  14    8    9 1
  15    8   11 1
  16    8   12 1
  17    9   37 1
  18    9   38 1
  19   10   11 ar
  20   10   13 1
  21   10   18 ar
  22   11   15 ar
  23   12   13 am
  24   12   14 2
  25   13   19 1
  26   15   16 ar
  27   15   39 1
  28   16   17 ar
  29   16   40 1
  30   17   18 ar
  31   17   41 1
  32   18   42 1
  33   19   20 1
  34   19   43 1
  35   19   44 1
  36   20   21 2
  37   20   24 1
  38   21   22 1
  39   21   45 1
  40   22   23 2
  41   22   46 1
  42   23   24 1
  43   23   25 1
  44   26   33 1
  45   27   28 ar
  46   27   32 ar
  47   27   33 1
  48   28   29 ar
  49   28   47 1
  50   29   30 ar
  51   29   48 1
  52   30   31 ar
  53   30   49 1
  54   31   32 ar
  55   31   50 1
  56   32   51 1
  57   33   52 1
  58   33   53 1

#	End of record

