#	Name: ASD01890506
#	Creating user name:	WinNT
#	Creation time:	15. 06. 2019 19:51

#	Modifying user name:	WinNT
#	Modification time:	15. 06. 2019 19:51

#	Program:	/corina/corina34_cracker 3.40 0067  02.08.2006

@<TRIPOS>MOLECULE
ASD01890506
  42   44    0    0    0
SMALL
NO_CHARGES


@<TRIPOS>ATOM
   1 C1             0.1494     1.4168     0.3198 C.ar    
   2 C2             0.2112     0.0340     0.3211 C.ar    
   3 C3             1.4177    -0.6058     0.5370 C.ar    
   4 C4             2.5648     0.1376     0.7515 C.ar    
   5 C5             2.5026     1.5174     0.7495 C.ar    
   6 C6             1.2944     2.1582     0.5338 C.ar    
   7 C7            -1.0111     2.3588     0.1212 C.3     
   8 N8            -0.4963     3.7281     0.2222 N.am    
   9 C9             0.9432     3.6236     0.4808 C.3     
  10 C10           -1.2104     4.8650     0.1040 C.2     
  11 C11           -0.5263     6.2014     0.2348 C.3     
  12 C12           -1.5335     7.3192    -0.0427 C.3     
  13 C13           -2.5822     7.3305     1.0395 C.ar    
  14 C14           -3.9123     7.1392     0.7147 C.ar    
  15 C15           -0.8078     8.6660    -0.0636 C.3     
  16 Cl16           1.4932    -2.3402     0.5395 Cl      
  17 O17           -2.4034     4.8126    -0.1075 O.2     
  18 C18           -2.2132     7.5264     2.3573 C.ar    
  19 C19           -3.1745     7.5363     3.3502 C.ar    
  20 C20           -4.5064     7.3506     3.0251 C.ar    
  21 C21           -4.8746     7.1499     1.7067 C.ar    
  22 Cl22          -5.7145     7.3629     4.2718 Cl      
  23 C23            0.1315     8.7123    -1.2411 C.2     
  24 O24            0.1312     7.8145    -2.0498 O.2     
  25 O25            0.9684     9.7509    -1.3916 O.3     
  26 H26           -0.6844    -0.5460     0.1537 H       
  27 H27            3.5080    -0.3606     0.9206 H       
  28 H28            3.3981     2.0976     0.9170 H       
  29 H29           -1.4506     2.2011    -0.8638 H       
  30 H30           -1.7616     2.1884     0.8931 H       
  31 H31            1.1827     4.0964     1.4333 H       
  32 H32            1.4990     4.1070    -0.3226 H       
  33 H33           -0.1318     6.3104     1.2450 H       
  34 H34            0.2915     6.2628    -0.4832 H       
  35 H35           -2.0095     7.1480    -1.0082 H       
  36 H36           -4.1995     6.9818    -0.3145 H       
  37 H37           -1.5379     9.4708    -0.1493 H       
  38 H38           -0.2401     8.7872     0.8590 H       
  39 H39           -1.1735     7.6713     2.6109 H       
  40 H40           -2.8861     7.6886     4.3798 H       
  41 H41           -5.9142     7.0052     1.4522 H       
  42 H42            1.5521     9.7362    -2.1625 H       
@<TRIPOS>BOND
   1    1    2 ar
   2    1    6 ar
   3    1    7 1
   4    2    3 ar
   5    2   26 1
   6    3    4 ar
   7    3   16 1
   8    4    5 ar
   9    4   27 1
  10    5    6 ar
  11    5   28 1
  12    6    9 1
  13    7    8 1
  14    7   29 1
  15    7   30 1
  16    8    9 1
  17    8   10 am
  18    9   31 1
  19    9   32 1
  20   10   11 1
  21   10   17 2
  22   11   12 1
  23   11   33 1
  24   11   34 1
  25   12   13 1
  26   12   15 1
  27   12   35 1
  28   13   14 ar
  29   13   18 ar
  30   14   21 ar
  31   14   36 1
  32   15   23 1
  33   15   37 1
  34   15   38 1
  35   18   19 ar
  36   18   39 1
  37   19   20 ar
  38   19   40 1
  39   20   21 ar
  40   20   22 1
  41   21   41 1
  42   23   24 2
  43   23   25 1
  44   25   42 1

#	End of record

