#	Name: ASD01140463
#	Creating user name:	WinNT
#	Creation time:	15. 06. 2019 19:00

#	Modifying user name:	WinNT
#	Modification time:	15. 06. 2019 19:00

#	Program:	/corina/corina34_cracker 3.40 0067  02.08.2006

@<TRIPOS>MOLECULE
ASD01140463
  44   47    0    0    0
SMALL
NO_CHARGES


@<TRIPOS>ATOM
   1 N1            -0.0400     1.3430     0.0464 N.ar    
   2 C2            -0.0433     0.0203     0.0493 C.ar    
   3 C3             1.1548    -0.6784     0.0193 C.ar    
   4 N4             2.3020    -0.0303    -0.0118 N.ar    
   5 C5             1.1028     1.9961     0.0149 C.ar    
   6 C6             1.4538     3.4631     0.0020 C.3     
   7 C7             2.3125     1.3002    -0.0150 C.ar    
   8 C8             3.4134     2.2863    -0.0464 C.2     
   9 N9             2.9186     3.5360    -0.0369 N.am    
  10 C10            3.6726     4.7077    -0.0605 C.ar    
  11 C11            3.9885     5.3475     1.1330 C.ar    
  12 C12            4.7380     6.5098     1.0958 C.ar    
  13 C13            5.1480     6.9946    -0.1400 C.ar    
  14 C14            4.7976     6.3069    -1.2861 C.ar    
  15 N15            4.0859     5.1980    -1.2184 N.ar    
  16 O16            4.5958     2.0071    -0.0765 O.2     
  17 O17            0.8913     4.1001    -1.1753 O.3     
  18 C18            0.8248     5.4448    -1.1698 C.2     
  19 N19            0.4169     6.1039    -2.2724 N.am    
  20 O20            1.1324     6.0643    -0.1707 O.2     
  21 N21            0.5668     7.4248    -4.7214 N.3     
  22 C22            0.7977     5.9710    -4.6767 C.3     
  23 C23            0.0341     5.3733    -3.4902 C.3     
  24 C24            0.3370     7.5724    -2.2878 C.3     
  25 C25            1.0893     8.0880    -3.5193 C.3     
  26 C26            1.1392     8.0115    -5.9405 C.3     
  27 Cl27           6.0899     8.4492    -0.2431 Cl      
  28 H28           -0.9801    -0.5166     0.0755 H       
  29 H29            1.1475    -1.7584     0.0218 H       
  30 H30            1.0788     3.9457     0.9046 H       
  31 H31            3.6529     4.9428     2.0763 H       
  32 H32            4.9983     7.0285     2.0066 H       
  33 H33            5.1137     6.6795    -2.2492 H       
  34 H34            0.4482     5.5185    -5.6047 H       
  35 H35            1.8631     5.7755    -4.5550 H       
  36 H36            0.2923     4.3200    -3.3817 H       
  37 H37           -1.0384     5.4751    -3.6563 H       
  38 H38           -0.7069     7.8818    -2.3404 H       
  39 H39            0.7956     7.9736    -1.3840 H       
  40 H40            2.1508     7.8645    -3.4128 H       
  41 H41            0.9513     9.1655    -3.6092 H       
  42 H42            0.6745     7.5568    -6.8154 H       
  43 H43            0.9545     9.0857    -5.9481 H       
  44 H44            2.2133     7.8273    -5.9627 H       
@<TRIPOS>BOND
   1    1    2 ar
   2    1    5 ar
   3    2    3 ar
   4    2   28 1
   5    3    4 ar
   6    3   29 1
   7    4    7 ar
   8    5    7 ar
   9    5    6 1
  10    6    9 1
  11    6   17 1
  12    6   30 1
  13    7    8 1
  14    8    9 am
  15    8   16 2
  16    9   10 1
  17   10   11 ar
  18   10   15 ar
  19   11   12 ar
  20   11   31 1
  21   12   13 ar
  22   12   32 1
  23   13   14 ar
  24   13   27 1
  25   14   15 ar
  26   14   33 1
  27   17   18 1
  28   18   19 am
  29   18   20 2
  30   19   24 1
  31   19   23 1
  32   21   22 1
  33   21   25 1
  34   21   26 1
  35   22   23 1
  36   22   34 1
  37   22   35 1
  38   23   36 1
  39   23   37 1
  40   24   25 1
  41   24   38 1
  42   24   39 1
  43   25   40 1
  44   25   41 1
  45   26   42 1
  46   26   43 1
  47   26   44 1

#	End of record

