#	Name: ASD03240305
#	Creating user name:	WinNT
#	Creation time:	15. 06. 2019 20:34

#	Modifying user name:	WinNT
#	Modification time:	15. 06. 2019 20:34

#	Program:	/corina/corina34_cracker 3.40 0067  02.08.2006

@<TRIPOS>MOLECULE
ASD03240305
  96  103    0    0    0
SMALL
NO_CHARGES


@<TRIPOS>ATOM
   1 C1            -0.9154     0.3886    -1.9542 C.2     
   2 N2            -0.5340    -0.5872    -1.0640 N.pl3   
   3 O3            -4.1182     2.6969    -1.3361 O.2     
   4 C4            -3.9586     1.9029    -0.4333 C.2     
   5 C5            -2.8023     0.9373    -0.4747 C.3     
   6 N6            -2.0257     1.1577    -1.6972 N.pl3   
   7 N7            -0.2213     0.5882    -3.0392 N.2     
   8 N8            -4.8154     1.8841     0.6069 N.am    
   9 C9            -5.8166     2.8476     0.7020 C.ar    
  10 C10           -7.0629     2.5115     1.2497 C.ar    
  11 C11           -8.0587     3.4748     1.3428 C.ar    
  12 C12           -7.8131     4.7720     0.8905 C.ar    
  13 C13           -6.5672     5.0977     0.3458 C.ar    
  14 C14           -5.5783     4.1428     0.2592 C.ar    
  15 C15           -8.8682     5.7996     0.9867 C.2     
  16 N16           -8.6307     7.0522     0.5498 N.am    
  17 O17           -9.9518     5.5159     1.4601 O.2     
  18 C18           -9.6671     7.9943     0.5270 C.ar    
  19 C19           -9.3756     9.3494     0.6120 C.ar    
  20 C20          -10.9856     7.5734     0.4137 C.ar    
  21 C21          -12.0072     8.5018     0.3912 C.ar    
  22 C22          -11.7162     9.8568     0.4819 C.ar    
  23 C23          -10.3970    10.2780     0.5895 C.ar    
  24 N24          -12.7512    10.7977     0.4586 N.pl3   
  25 C25          -12.4442    12.2270     0.5543 C.3     
  26 C26          -14.1422    10.3537     0.3386 C.3     
  27 C27           -7.3170     1.1310     1.7278 C.ar    
  28 C28           -7.0181     0.0400     0.8958 C.ar    
  29 C29           -7.2419    -1.2340     1.3099 C.ar    
  30 C30           -7.7793    -1.4737     2.5871 C.ar    
  31 C31           -8.0845    -0.3796     3.4361 C.ar    
  32 C32           -7.8410     0.9287     2.9913 C.ar    
  33 C33          -14.7177    10.1279     1.7130 C.ar    
  34 C34          -12.2403    12.7906    -0.8284 C.ar    
  35 C35          -15.3363    11.1546     2.3575 C.ar    
  36 C36          -15.8746    10.9474     3.6391 C.ar    
  37 C37          -15.7640     9.6690     4.2407 C.ar    
  38 C38          -15.1177     8.6333     3.5443 C.ar    
  39 C39          -14.6136     8.8693     2.3024 C.ar    
  40 C40          -13.3048    13.2940    -1.5107 C.ar    
  41 C41          -13.1182    13.8208    -2.8002 C.ar    
  42 C42          -11.8207    13.8192    -3.3702 C.ar    
  43 C43          -10.7458    13.2903    -2.6352 C.ar    
  44 C44          -10.9633    12.7938    -1.3869 C.ar    
  45 C45          -14.1930    14.3488    -3.5357 C.ar    
  46 C46          -13.9745    14.8501    -4.7819 C.ar    
  47 C47          -12.6985    14.8482    -5.3426 C.ar    
  48 C48          -11.6338    14.3460    -4.6596 C.ar    
  49 C49          -16.5200    11.9832     4.3360 C.ar    
  50 C50          -17.0289    11.7457     5.5757 C.ar    
  51 C51          -16.9197    10.4886     6.1674 C.ar    
  52 C52          -16.3023     9.4616     5.5222 C.ar    
  53 C53           -8.0206    -2.7823     3.0387 C.ar    
  54 C54           -8.5419    -2.9822     4.2801 C.ar    
  55 C55           -8.8419    -1.9070     5.1146 C.ar    
  56 C56           -8.6221    -0.6258     4.7121 C.ar    
  57 H57            0.2516    -1.1272    -1.2434 H       
  58 H58           -1.0506    -0.7358    -0.2565 H       
  59 H59           -2.1645     1.0968     0.3947 H       
  60 H60           -3.1817    -0.0845    -0.4645 H       
  61 H61           -2.2947     1.8462    -2.3253 H       
  62 H62            0.5643     0.0483    -3.2186 H       
  63 H63           -4.7347     1.1995     1.2894 H       
  64 H64           -9.0204     3.2209     1.7636 H       
  65 H65           -6.3784     6.1018    -0.0042 H       
  66 H66           -4.6177     4.3994    -0.1624 H       
  67 H67           -7.7421     7.3015     0.2512 H       
  68 H68           -8.3499     9.6769     0.6960 H       
  69 H69          -11.2119     6.5197     0.3428 H       
  70 H70          -13.0326     8.1744     0.3027 H       
  71 H71          -10.1706    11.3316     0.6604 H       
  72 H72          -13.2717    12.7447     1.0393 H       
  73 H73          -11.5357    12.3650     1.1405 H       
  74 H74          -14.7239    11.1171    -0.1780 H       
  75 H75          -14.1790     9.4233    -0.2281 H       
  76 H76           -6.6052     0.2163    -0.0864 H       
  77 H77           -7.0076    -2.0628     0.6583 H       
  78 H78           -8.0684     1.7712     3.6276 H       
  79 H79          -15.4129    12.1236     1.8867 H       
  80 H80          -15.0260     7.6540     3.9904 H       
  81 H81          -14.1177     8.0716     1.7693 H       
  82 H82          -14.2880    13.2883    -1.0637 H       
  83 H83           -9.7516    13.2825    -3.0569 H       
  84 H84          -10.1356    12.3883    -0.8240 H       
  85 H85          -15.1874    14.3563    -3.1143 H       
  86 H86          -14.8023    15.2553    -5.3449 H       
  87 H87          -12.5524    15.2515    -6.3337 H       
  88 H88          -10.6507    14.3514    -5.1066 H       
  89 H89          -16.6114    12.9626     3.8902 H       
  90 H90          -17.5244    12.5434     6.1091 H       
  91 H91          -17.3316    10.3268     7.1526 H       
  92 H92          -16.2254     8.4927     5.9930 H       
  93 H93           -7.7937    -3.6258     2.4035 H       
  94 H94           -8.7263    -3.9894     4.6235 H       
  95 H95           -9.2548    -2.0933     6.0950 H       
  96 H96           -8.8589     0.1978     5.3694 H       
@<TRIPOS>BOND
   1    1    2 1
   2    1    7 2
   3    1    6 1
   4    2   57 1
   5    2   58 1
   6    3    4 2
   7    4    5 1
   8    4    8 am
   9    5    6 1
  10    5   59 1
  11    5   60 1
  12    6   61 1
  13    7   62 1
  14    8    9 1
  15    8   63 1
  16    9   10 ar
  17    9   14 ar
  18   10   11 ar
  19   10   27 1
  20   11   12 ar
  21   11   64 1
  22   12   13 ar
  23   12   15 1
  24   13   14 ar
  25   13   65 1
  26   14   66 1
  27   15   16 am
  28   15   17 2
  29   16   18 1
  30   16   67 1
  31   18   19 ar
  32   18   20 ar
  33   19   23 ar
  34   19   68 1
  35   20   21 ar
  36   20   69 1
  37   21   22 ar
  38   21   70 1
  39   22   23 ar
  40   22   24 1
  41   23   71 1
  42   24   25 1
  43   24   26 1
  44   25   34 1
  45   25   72 1
  46   25   73 1
  47   26   33 1
  48   26   74 1
  49   26   75 1
  50   27   28 ar
  51   27   32 ar
  52   28   29 ar
  53   28   76 1
  54   29   30 ar
  55   29   77 1
  56   30   31 ar
  57   30   53 ar
  58   31   32 ar
  59   31   56 ar
  60   32   78 1
  61   33   35 ar
  62   33   39 ar
  63   34   40 ar
  64   34   44 ar
  65   35   36 ar
  66   35   79 1
  67   36   37 ar
  68   36   49 ar
  69   37   38 ar
  70   37   52 ar
  71   38   39 ar
  72   38   80 1
  73   39   81 1
  74   40   41 ar
  75   40   82 1
  76   41   42 ar
  77   41   45 ar
  78   42   43 ar
  79   42   48 ar
  80   43   44 ar
  81   43   83 1
  82   44   84 1
  83   45   46 ar
  84   45   85 1
  85   46   47 ar
  86   46   86 1
  87   47   48 ar
  88   47   87 1
  89   48   88 1
  90   49   50 ar
  91   49   89 1
  92   50   51 ar
  93   50   90 1
  94   51   52 ar
  95   51   91 1
  96   52   92 1
  97   53   54 ar
  98   53   93 1
  99   54   55 ar
 100   54   94 1
 101   55   56 ar
 102   55   95 1
 103   56   96 1

#	End of record

