#	Name: ASD02030401
#	Creating user name:	WinNT
#	Creation time:	15. 06. 2019 20:15

#	Modifying user name:	WinNT
#	Modification time:	15. 06. 2019 20:15

#	Program:	/corina/corina34_cracker 3.40 0067  02.08.2006

@<TRIPOS>MOLECULE
ASD02030401
  21   22    0    0    0
SMALL
NO_CHARGES


@<TRIPOS>ATOM
   1 C1            -0.0158     1.3134     0.0093 C.ar    
   2 N2             0.0021    -0.0041     0.0020 N.ar    
   3 C3             1.1294    -0.7053    -0.0125 C.ar    
   4 C4             2.3514    -0.1042    -0.0205 C.ar    
   5 C5             2.4157     1.3025    -0.0135 C.ar    
   6 C6             3.6350     1.9933    -0.0205 C.ar    
   7 C7             3.6335     3.3582    -0.0127 C.ar    
   8 C8             2.4357     4.0739     0.0024 C.ar    
   9 C9             1.2344     3.4321     0.0100 C.ar    
  10 C10            1.1987     2.0306     0.0015 C.ar    
  11 O11           -1.1970     1.9771     0.0185 O.3     
  12 C12           -2.3863     1.1849     0.0198 C.3     
  13 F13            4.8081     4.0256    -0.0194 F       
  14 Cl14           1.0431    -2.4392    -0.0211 Cl      
  15 H15            3.2549    -0.6958    -0.0316 H       
  16 H16            4.5683     1.4500    -0.0315 H       
  17 H17            2.4616     5.1536     0.0086 H       
  18 H18            0.3153     3.9991     0.0224 H       
  19 H19           -2.4080     0.5607    -0.8735 H       
  20 H20           -2.3996     0.5510     0.9064 H       
  21 H21           -3.2584     1.8387     0.0275 H       
@<TRIPOS>BOND
   1    1    2 ar
   2    1   10 ar
   3    1   11 1
   4    2    3 ar
   5    3    4 ar
   6    3   14 1
   7    4    5 ar
   8    4   15 1
   9    5    6 ar
  10    5   10 ar
  11    6    7 ar
  12    6   16 1
  13    7    8 ar
  14    7   13 1
  15    8    9 ar
  16    8   17 1
  17    9   10 ar
  18    9   18 1
  19   11   12 1
  20   12   19 1
  21   12   20 1
  22   12   21 1

#	End of record

