#	Name: ASD02500314
#	Creating user name:	WinNT
#	Creation time:	15. 06. 2019 20:22

#	Modifying user name:	WinNT
#	Modification time:	15. 06. 2019 20:22

#	Program:	/corina/corina34_cracker 3.40 0067  02.08.2006

@<TRIPOS>MOLECULE
ASD02500314
  62   66    0    0    0
SMALL
NO_CHARGES


@<TRIPOS>ATOM
   1 C1             0.0610     1.1110    -1.0145 C.ar    
   2 C2            -0.0757     0.1724    -2.0218 C.ar    
   3 C3             0.9703    -0.6737    -2.3270 C.ar    
   4 C4             2.1684    -0.5814    -1.6170 C.ar    
   5 C5             2.2998     0.3676    -0.6021 C.ar    
   6 C6             1.2461     1.2077    -0.3069 C.ar    
   7 S7            -1.2773     2.1928    -0.6360 S.o2    
   8 O8            -0.7057     3.3367    -0.0163 O.2     
   9 O9            -2.0802     2.2624    -1.8063 O.2     
  10 N10           -2.1991     1.4464     0.5198 N.am    
  11 N11           -2.9359    -0.8944     1.8769 N.ar    
  12 C12           -3.3021    -1.9963     2.4854 C.ar    
  13 C13           -2.7640    -2.3671     3.7160 C.ar    
  14 C14           -1.8297    -1.5736     4.3180 C.ar    
  15 C15           -1.4393    -0.3910     3.6607 C.ar    
  16 C16           -0.4837     0.4727     4.2197 C.ar    
  17 C17           -0.1264     1.6091     3.5593 C.ar    
  18 C18           -0.6953     1.9326     2.3313 C.ar    
  19 C19           -1.6364     1.1105     1.7504 C.ar    
  20 C20           -2.0269    -0.0749     2.4116 C.ar    
  21 C21            3.2934    -1.4854    -1.9384 C.2     
  22 O22            3.0926    -2.6740    -2.0939 O.2     
  23 N23            4.5415    -0.9914    -2.0589 N.am    
  24 C24            4.8483     0.4271    -1.7418 C.3     
  25 C25            5.4289     0.5166    -0.4066 C.3     
  26 N26            6.5978    -0.3948    -0.3082 N.am    
  27 C27            6.3272    -1.7706    -0.0775 C.3     
  28 C28            6.2954    -2.6536    -1.3677 C.3     
  29 C29            5.6236    -1.8058    -2.4893 C.3     
  30 C30            8.9952    -0.8884    -0.4412 C.ar    
  31 C31           10.2881    -0.4186    -0.6614 C.ar    
  32 C32           11.3410    -1.3198    -0.6608 C.ar    
  33 C33           11.0641    -2.6600    -0.4398 C.ar    
  34 C34            9.7536    -3.0568    -0.2277 C.ar    
  35 N35            8.7731    -2.1803    -0.2335 N.ar    
  36 C36            7.8594     0.0630    -0.4327 C.2     
  37 O37            8.0652     1.2559    -0.5379 O.2     
  38 H38           -1.0035     0.1018    -2.5701 H       
  39 H39            0.8621    -1.4062    -3.1132 H       
  40 H40            3.2242     0.4439    -0.0488 H       
  41 H41            1.3464     1.9426     0.4782 H       
  42 H42           -3.1304     1.2430     0.3405 H       
  43 H43           -4.0405    -2.6331     2.0209 H       
  44 H44           -3.0857    -3.2808     4.1934 H       
  45 H45           -1.4023    -1.8454     5.2718 H       
  46 H46           -0.0329     0.2364     5.1722 H       
  47 H47            0.6089     2.2690     3.9954 H       
  48 H48           -0.3958     2.8396     1.8273 H       
  49 H49            5.5569     0.8172    -2.4724 H       
  50 H50            3.9304     1.0138    -1.7784 H       
  51 H51            5.7507     1.5410    -0.2188 H       
  52 H52            4.6820     0.2300     0.3337 H       
  53 H53            7.0917    -2.1651     0.5918 H       
  54 H54            5.3615    -1.8534     0.4211 H       
  55 H55            7.3112    -2.9198    -1.6601 H       
  56 H56            5.7124    -3.5563    -1.1851 H       
  57 H57            5.2580    -2.4878    -3.2571 H       
  58 H58            6.3821    -1.1635    -2.9368 H       
  59 H59           10.4673     0.6329    -0.8306 H       
  60 H60           12.3541    -0.9856    -0.8290 H       
  61 H61           11.8620    -3.3878    -0.4334 H       
  62 H62            9.5343    -4.1002    -0.0552 H       
@<TRIPOS>BOND
   1    1    2 ar
   2    1    6 ar
   3    1    7 1
   4    2    3 ar
   5    2   38 1
   6    3    4 ar
   7    3   39 1
   8    4    5 ar
   9    4   21 1
  10    5    6 ar
  11    5   40 1
  12    6   41 1
  13    7    8 2
  14    7    9 2
  15    7   10 am
  16   10   19 1
  17   10   42 1
  18   11   12 ar
  19   11   20 ar
  20   12   13 ar
  21   12   43 1
  22   13   14 ar
  23   13   44 1
  24   14   15 ar
  25   14   45 1
  26   15   16 ar
  27   15   20 ar
  28   16   17 ar
  29   16   46 1
  30   17   18 ar
  31   17   47 1
  32   18   19 ar
  33   18   48 1
  34   19   20 ar
  35   21   22 2
  36   21   23 am
  37   23   24 1
  38   23   29 1
  39   24   25 1
  40   24   49 1
  41   24   50 1
  42   25   26 1
  43   25   51 1
  44   25   52 1
  45   26   27 1
  46   26   36 am
  47   27   28 1
  48   27   53 1
  49   27   54 1
  50   28   29 1
  51   28   55 1
  52   28   56 1
  53   29   57 1
  54   29   58 1
  55   30   31 ar
  56   30   35 ar
  57   30   36 1
  58   31   32 ar
  59   31   59 1
  60   32   33 ar
  61   32   60 1
  62   33   34 ar
  63   33   61 1
  64   34   35 ar
  65   34   62 1
  66   36   37 2

#	End of record

