#	Name: ASD03430104
#	Creating user name:	WinNT
#	Creation time:	15. 06. 2019 20:40

#	Modifying user name:	WinNT
#	Modification time:	15. 06. 2019 20:40

#	Program:	/corina/corina34_cracker 3.40 0067  02.08.2006

@<TRIPOS>MOLECULE
ASD03430104
  54   58    0    0    0
SMALL
NO_CHARGES


@<TRIPOS>ATOM
   1 C1             0.0444     1.3765    -0.0536 C.ar    
   2 C2             0.0420    -0.0098    -0.0384 C.ar    
   3 C3             1.2323    -0.7062    -0.0369 C.ar    
   4 C4             2.4486    -0.0298    -0.0404 C.ar    
   5 C5             2.4472     1.3613    -0.0605 C.ar    
   6 C6             1.2534     2.0626    -0.0657 C.ar    
   7 O7             3.4980    -0.9001    -0.0084 O.3     
   8 C8             1.5584    -2.1755    -0.0442 C.3     
   9 C9             3.0466    -2.2045    -0.4199 C.3     
  10 C10            0.4046    -3.8565     1.0332 C.ar    
  11 C11            1.3033    -2.8240     1.2838 C.ar    
  12 C12            0.7209    -2.9408    -1.0281 C.2     
  13 N13            0.0843    -3.8993    -0.3259 N.am    
  14 O14            0.6339    -2.7363    -2.2204 O.2     
  15 C15            1.7629    -2.5880     2.5666 C.ar    
  16 C16            1.3271    -3.3875     3.6173 C.ar    
  17 C17            0.4360    -4.4146     3.3737 C.ar    
  18 C18           -0.0244    -4.6508     2.0942 C.ar    
  19 N19            2.6657    -1.5463     2.8068 N.am    
  20 O20           -1.1397     2.0484    -0.0621 O.3     
  21 C21           -1.0958     3.4343     0.2950 C.3     
  22 C22            0.0700     4.0872    -0.4600 C.3     
  23 O23            1.2797     3.4240    -0.0789 O.3     
  24 C24           -0.8358    -4.8728    -0.9190 C.3     
  25 C25            3.4959    -1.6050     3.8668 C.2     
  26 C26            4.5293    -0.5281     4.0752 C.3     
  27 O27            3.4115    -2.5247     4.6530 O.2     
  28 C28            5.3340    -0.8314     5.3406 C.3     
  29 C29            5.4709    -0.4848     2.8700 C.3     
  30 C30            3.8319     0.8254     4.2264 C.3     
  31 H31           -0.8954    -0.5463    -0.0275 H       
  32 H32            3.3843     1.8981    -0.0718 H       
  33 H33            3.1719    -2.3362    -1.4947 H       
  34 H34            3.5696    -2.9866     0.1305 H       
  35 H35            1.6843    -3.2064     4.6203 H       
  36 H36            0.0973    -5.0363     4.1894 H       
  37 H37           -0.7212    -5.4561     1.9145 H       
  38 H38            2.6939    -0.7818     2.2104 H       
  39 H39           -2.0321     3.9163     0.0138 H       
  40 H40           -0.9392     3.5324     1.3692 H       
  41 H41           -0.0829     3.9821    -1.5341 H       
  42 H42            0.1314     5.1436    -0.1986 H       
  43 H43           -1.8494    -4.4723    -0.9013 H       
  44 H44           -0.5411    -5.0701    -1.9497 H       
  45 H45           -0.8015    -5.8002    -0.3474 H       
  46 H46            5.8308    -1.7956     5.2328 H       
  47 H47            6.0814    -0.0524     5.4913 H       
  48 H48            4.6632    -0.8622     6.1991 H       
  49 H49            4.8976    -0.2687     1.9685 H       
  50 H50            6.2183     0.2942     3.0208 H       
  51 H51            5.9677    -1.4490     2.7623 H       
  52 H52            3.1611     0.7945     5.0850 H       
  53 H53            4.5793     1.6043     4.3771 H       
  54 H54            3.2586     1.0415     3.3249 H       
@<TRIPOS>BOND
   1    1    2 ar
   2    1    6 ar
   3    1   20 1
   4    2    3 ar
   5    2   31 1
   6    3    4 ar
   7    3    8 1
   8    4    5 ar
   9    4    7 1
  10    5    6 ar
  11    5   32 1
  12    6   23 1
  13    7    9 1
  14    8    9 1
  15    8   11 1
  16    8   12 1
  17    9   33 1
  18    9   34 1
  19   10   11 ar
  20   10   13 1
  21   10   18 ar
  22   11   15 ar
  23   12   13 am
  24   12   14 2
  25   13   24 1
  26   15   16 ar
  27   15   19 1
  28   16   17 ar
  29   16   35 1
  30   17   18 ar
  31   17   36 1
  32   18   37 1
  33   19   25 am
  34   19   38 1
  35   20   21 1
  36   21   22 1
  37   21   39 1
  38   21   40 1
  39   22   23 1
  40   22   41 1
  41   22   42 1
  42   24   43 1
  43   24   44 1
  44   24   45 1
  45   25   26 1
  46   25   27 2
  47   26   28 1
  48   26   29 1
  49   26   30 1
  50   28   46 1
  51   28   47 1
  52   28   48 1
  53   29   49 1
  54   29   50 1
  55   29   51 1
  56   30   52 1
  57   30   53 1
  58   30   54 1

#	End of record

