#	Name: ASD05740137
#	Creating user name:	WinNT
#	Creation time:	15. 06. 2019 21:02

#	Modifying user name:	WinNT
#	Modification time:	15. 06. 2019 21:02

#	Program:	/corina/corina34_cracker 3.40 0067  02.08.2006

@<TRIPOS>MOLECULE
ASD05740137
  51   52    0    0    0
SMALL
NO_CHARGES


@<TRIPOS>ATOM
   1 C1            -0.5138     1.8904     0.2202 C.3     
   2 C2             0.7972    -1.0604     3.7757 C.3     
   3 C3             0.7416    -2.0044     8.1675 C.3     
   4 C4             0.8505     0.0807     9.6183 C.2     
   5 C5             1.1693     1.4193     9.7612 C.2     
   6 C6             1.0764    -0.5477     8.3599 C.2     
   7 C7             1.5965     0.1765     7.3348 C.2     
   8 C8             1.9036     1.5327     7.5302 C.2     
   9 O9             1.6861     2.1129     8.7188 O.3     
  10 C10            1.8427    -0.4717     5.9968 C.3     
  11 C11            0.5875    -0.3467     5.1309 C.3     
  12 C12            0.3299     1.1287     4.7728 C.3     
  13 O13            2.3706     2.1866     6.6129 O.2     
  14 C14            0.0989    -0.1094     2.7715 C.3     
  15 N15            0.4218     1.2404     3.3009 N.3     
  16 N16            0.6511    -0.2826     1.4257 N.am    
  17 S17           -0.2650     0.0976     0.0996 S.o2    
  18 O18           -1.4899    -0.5911     0.3107 O.2     
  19 O19            0.5711    -0.2166    -1.0057 O.2     
  20 S20            0.7980     1.9495    11.3983 S.3     
  21 C21            0.2216     0.3584    11.8555 C.2     
  22 C22            0.3147    -0.4910    10.8451 C.2     
  23 O23           -0.2533     0.0381    13.0873 O.3     
  24 C24           -0.2782     1.0806    14.0643 C.3     
  25 H25            0.4532     2.3933     0.2045 H       
  26 H26           -1.1144     2.2314    -0.6231 H       
  27 H27           -1.0296     2.1238     1.1516 H       
  28 H28            1.8593    -1.1501     3.5473 H       
  29 H29            0.3179    -2.0393     3.7771 H       
  30 H30            0.3390    -2.4103     9.0955 H       
  31 H31            0.0001    -2.1051     7.3750 H       
  32 H32            1.6436    -2.5513     7.8928 H       
  33 H33            2.6771     0.0243     5.5009 H       
  34 H34            2.0806    -1.5255     6.1418 H       
  35 H35           -0.2734    -0.7672     5.6507 H       
  36 H36           -0.6651     1.4235     5.1062 H       
  37 H37            1.0839     1.7615     5.2409 H       
  38 H38           -0.9787    -0.2735     2.7679 H       
  39 H39           -0.2248     1.9307     2.9496 H       
  40 H40            1.5533    -0.6200     1.3113 H       
  41 H41            0.0102    -1.5243    10.9223 H       
  42 H42            0.7343     1.4496    14.2277 H       
  43 H43           -0.9093     1.8956    13.7100 H       
  44 H44           -0.6786     0.6916    15.0005 H       
  45 C45            8.2042    10.0626    21.8688 C.3     
  46 N46            8.2241     8.5977    21.8608 N.2     
  47 C47            8.7648     7.9852    20.9147 C.1     
  48 O48            9.2874     7.3933    20.0005 O.2     
  49 H49            9.2268    10.4399    21.8611 H       
  50 H50            7.6771    10.4237    20.9858 H       
  51 H51            7.6941    10.4141    22.7656 H       
@<TRIPOS>BOND
   1    1   17 1
   2    1   25 1
   3    1   26 1
   4    1   27 1
   5    2   11 1
   6    2   14 1
   7    2   28 1
   8    2   29 1
   9    3    6 1
  10    3   30 1
  11    3   31 1
  12    3   32 1
  13    4    5 2
  14    4    6 1
  15    4   22 1
  16    5   20 1
  17    5    9 1
  18    6    7 2
  19    7    8 1
  20    7   10 1
  21    8    9 1
  22    8   13 2
  23   10   11 1
  24   10   33 1
  25   10   34 1
  26   11   12 1
  27   11   35 1
  28   12   15 1
  29   12   36 1
  30   12   37 1
  31   14   15 1
  32   14   16 1
  33   14   38 1
  34   15   39 1
  35   16   17 am
  36   16   40 1
  37   17   18 2
  38   17   19 2
  39   20   21 1
  40   21   22 2
  41   21   23 1
  42   22   41 1
  43   23   24 1
  44   24   42 1
  45   24   43 1
  46   24   44 1
  47   45   46 1
  48   45   49 1
  49   45   50 1
  50   45   51 1
  51   46   47 2
  52   47   48 2

#	End of record

