#	Name: ASD04490009
#	Creating user name:	WinNT
#	Creation time:	15. 06. 2019 20:49

#	Modifying user name:	WinNT
#	Modification time:	15. 06. 2019 20:49

#	Program:	/corina/corina34_cracker 3.40 0067  02.08.2006

@<TRIPOS>MOLECULE
ASD04490009
  28   29    0    0    0
SMALL
NO_CHARGES


@<TRIPOS>ATOM
   1 C1            -0.0168     1.3868     0.0097 C.ar    
   2 C2             0.0021    -0.0041     0.0020 C.ar    
   3 C3            -1.1801    -0.7123     0.0095 C.ar    
   4 C4            -2.3920    -0.0301     0.0252 C.ar    
   5 C5            -2.4166     1.3724     0.0334 C.ar    
   6 C6            -1.2178     2.0733     0.0306 C.ar    
   7 C7            -3.8090    -0.4483     0.0366 C.2     
   8 C8            -4.5332     0.7040     0.0503 C.2     
   9 O9            -3.7094     1.7585     0.0482 O.3     
  10 C10           -6.0382     0.7809     0.0658 C.3     
  11 C11           -4.3285    -1.8226     0.0334 C.2     
  12 O12           -4.5330    -2.3976     1.0849 O.2     
  13 O13           -4.5783    -2.4461    -1.1355 O.3     
  14 O14            1.1542     2.0770     0.0022 O.3     
  15 C15            1.0667     3.5033     0.0107 C.3     
  16 S16            1.5408    -0.8623    -0.0179 S.o2    
  17 O17            1.9210    -1.0740     1.3702 O.co2   
  18 O18            1.3126    -2.1163    -0.7188 O.co2   
  19 O19            2.4878    -0.0093    -0.7192 O.co2   
  20 H20           -1.1656    -1.7922     0.0028 H       
  21 H21           -1.2230     3.1533     0.0372 H       
  22 H22           -6.3907     0.7937     1.0972 H       
  23 H23           -6.3607     1.6910    -0.4398 H       
  24 H24           -6.4516    -0.0866    -0.4487 H       
  25 H25           -4.9192    -3.3497    -1.0870 H       
  26 H26            0.5231     3.8392    -0.8724 H       
  27 H27            0.5401     3.8297     0.9075 H       
  28 H28            2.0701     3.9289     0.0034 H       
@<TRIPOS>BOND
   1    1    2 ar
   2    1   14 1
   3    1    6 ar
   4    2    3 ar
   5    2   16 1
   6    3    4 ar
   7    3   20 1
   8    4    5 ar
   9    4    7 1
  10    5    6 ar
  11    5    9 1
  12    6   21 1
  13    7    8 2
  14    7   11 1
  15    8    9 1
  16    8   10 1
  17   10   22 1
  18   10   23 1
  19   10   24 1
  20   11   12 2
  21   11   13 1
  22   13   25 1
  23   14   15 1
  24   15   26 1
  25   15   27 1
  26   15   28 1
  27   16   17 ar
  28   16   18 ar
  29   16   19 ar

#	End of record

