#	Name: ASD01885052
#	Creating user name:	WinNT
#	Creation time:	15. 06. 2019 19:49

#	Modifying user name:	WinNT
#	Modification time:	15. 06. 2019 19:49

#	Program:	/corina/corina34_cracker 3.40 0067  02.08.2006

@<TRIPOS>MOLECULE
ASD01885052
  43   47    0    0    0
SMALL
NO_CHARGES


@<TRIPOS>ATOM
   1 C1             0.6986     1.4190     1.0677 C.2     
   2 C2             1.2066    -0.6546    -0.0130 C.2     
   3 C3             1.6493     0.0764    -1.1365 C.2     
   4 C4             1.6067     1.4232    -1.1307 C.2     
   5 N5             1.1372     2.0991    -0.0423 N.pl3   
   6 C6             0.9789     3.4228     0.2461 C.2     
   7 N7             0.4786     3.5054     1.4508 N.2     
   8 N8             0.3036     2.3301     1.9442 N.2     
   9 C9             1.3188     4.5788    -0.6589 C.3     
  10 N10            1.2514    -2.0467    -0.0204 N.pl3   
  11 C11            0.1012     4.9307    -1.5160 C.3     
  12 C12            0.7334     0.0137     1.0842 C.2     
  13 C13            2.4445    -2.9170    -0.1379 C.3     
  14 C14            1.9931    -4.0755    -1.0532 C.3     
  15 C15            0.4583    -4.1256    -0.9047 C.3     
  16 C16            0.1173    -2.9930     0.0939 C.3     
  17 C17            1.0916    -3.7443    -2.2442 C.3     
  18 H18            2.5998    -4.9810    -1.0586 H       
  19 C19            1.0165    -4.7541    -3.3604 C.ar    
  20 H20           -0.0784    -5.0685    -0.7993 H       
  21 C21            1.3968    -4.3984    -4.6409 C.ar    
  22 C22            1.3279    -5.3246    -5.6647 C.ar    
  23 C23            0.8792    -6.6067    -5.4079 C.ar    
  24 C24            0.4999    -6.9626    -4.1272 C.ar    
  25 C25            0.5728    -6.0377    -3.1025 C.ar    
  26 F26           -0.9665     5.2870    -0.6853 F       
  27 F27            0.4168     6.0039    -2.3562 F       
  28 F28           -0.2599     3.8228    -2.2903 F       
  29 Cl29           0.1838    -0.8631     2.4781 Cl      
  30 H30            2.0242    -0.4460    -2.0042 H       
  31 H31            1.9479     1.9729    -1.9955 H       
  32 H32            1.6002     5.4420    -0.0557 H       
  33 H33            2.1508     4.3012    -1.3062 H       
  34 H34            3.2697    -2.3709    -0.5950 H       
  35 H35            2.7354    -3.2974     0.8412 H       
  36 H36            0.0448    -3.3886     1.1070 H       
  37 H37           -0.8135    -2.5026    -0.1911 H       
  38 H38            1.0278    -2.7003    -2.5510 H       
  39 H39            1.7473    -3.3968    -4.8416 H       
  40 H40            1.6243    -5.0466    -6.6654 H       
  41 H41            0.8247    -7.3301    -6.2080 H       
  42 H42            0.1490    -7.9642    -3.9266 H       
  43 H43            0.2765    -6.3157    -2.1019 H       
@<TRIPOS>BOND
   1    1   12 1
   2    1    5 1
   3    1    8 2
   4    2    3 1
   5    2   10 1
   6    2   12 2
   7    3    4 2
   8    3   30 1
   9    4    5 1
  10    4   31 1
  11    5    6 1
  12    6    7 2
  13    6    9 1
  14    7    8 1
  15    9   11 1
  16    9   32 1
  17    9   33 1
  18   10   13 1
  19   10   16 1
  20   11   26 1
  21   11   27 1
  22   11   28 1
  23   12   29 1
  24   13   14 1
  25   13   34 1
  26   13   35 1
  27   14   15 1
  28   14   18 1
  29   14   17 1
  30   15   16 1
  31   15   20 1
  32   15   17 1
  33   16   36 1
  34   16   37 1
  35   17   19 1
  36   17   38 1
  37   19   21 ar
  38   19   25 ar
  39   21   22 ar
  40   21   39 1
  41   22   23 ar
  42   22   40 1
  43   23   24 ar
  44   23   41 1
  45   24   25 ar
  46   24   42 1
  47   25   43 1

#	End of record

