#	Name: ASD01730037
#	Creating user name:	WinNT
#	Creation time:	15. 06. 2019 19:23

#	Modifying user name:	WinNT
#	Modification time:	15. 06. 2019 19:23

#	Program:	/corina/corina34_cracker 3.40 0067  02.08.2006

@<TRIPOS>MOLECULE
ASD01730037
  37   38    0    0    0
SMALL
NO_CHARGES


@<TRIPOS>ATOM
   1 C1             0.0275     1.8755     0.1819 C.2     
   2 C2             0.6758     0.5617     0.5352 C.3     
   3 N3             0.7502     2.9661     0.1179 N.2     
   4 N4            -1.3073     1.9278    -0.0762 N.pl3   
   5 C5            -2.0909     0.6914    -0.1352 C.3     
   6 C6            -2.6303     0.3624     1.2582 C.3     
   7 C7            -1.9610     3.2205    -0.2950 C.3     
   8 C8            -1.9194     3.5674    -1.7845 C.3     
   9 S9             4.1563     4.0811     1.6306 S.3     
  10 C10            2.8390     4.2060     0.3831 C.3     
  11 C11            2.0727     2.9118     0.3583 C.2     
  12 N12            2.6043     1.7547     0.5535 N.2     
  13 C13            3.9105     1.4829     0.8065 C.ar    
  14 C14            4.7796     2.4594     1.3192 C.ar    
  15 C15            4.4112     0.2012     0.5549 C.ar    
  16 C16            5.7345    -0.0881     0.8141 C.ar    
  17 C17            6.5806     0.8810     1.3240 C.ar    
  18 C18            6.1040     2.1556     1.5759 C.ar    
  19 H19            1.1583     0.6449     1.5090 H       
  20 H20           -0.0831    -0.2198     0.5713 H       
  21 H21            1.4211     0.3098    -0.2192 H       
  22 H22           -2.9241     0.8219    -0.8258 H       
  23 H23           -1.4566    -0.1247    -0.4813 H       
  24 H24           -1.7972     0.2319     1.9488 H       
  25 H25           -3.2647     1.1784     1.6043 H       
  26 H26           -3.2134    -0.5575     1.2143 H       
  27 H27           -2.9980     3.1639     0.0361 H       
  28 H28           -1.4400     3.9917     0.2724 H       
  29 H29           -0.8824     3.6240    -2.1156 H       
  30 H30           -2.4403     2.7962    -2.3519 H       
  31 H31           -2.4057     4.5292    -1.9473 H       
  32 H32            2.1669     5.0242     0.6419 H       
  33 H33            3.2798     4.3881    -0.5970 H       
  34 H34            3.7602    -0.5633     0.1573 H       
  35 H35            6.1138    -1.0800     0.6177 H       
  36 H36            7.6145     0.6424     1.5254 H       
  37 H37            6.7653     2.9117     1.9727 H       
@<TRIPOS>BOND
   1    1    2 1
   2    1    3 2
   3    1    4 1
   4    2   19 1
   5    2   20 1
   6    2   21 1
   7    3   11 1
   8    4    5 1
   9    4    7 1
  10    5    6 1
  11    5   22 1
  12    5   23 1
  13    6   24 1
  14    6   25 1
  15    6   26 1
  16    7    8 1
  17    7   27 1
  18    7   28 1
  19    8   29 1
  20    8   30 1
  21    8   31 1
  22    9   10 1
  23    9   14 1
  24   10   11 1
  25   10   32 1
  26   10   33 1
  27   11   12 2
  28   12   13 1
  29   13   14 ar
  30   13   15 ar
  31   14   18 ar
  32   15   16 ar
  33   15   34 1
  34   16   17 ar
  35   16   35 1
  36   17   18 ar
  37   17   36 1
  38   18   37 1

#	End of record

