#	Name: ASD04590717
#	Creating user name:	WinNT
#	Creation time:	15. 06. 2019 20:51

#	Modifying user name:	WinNT
#	Modification time:	15. 06. 2019 20:51

#	Program:	/corina/corina34_cracker 3.40 0067  02.08.2006

@<TRIPOS>MOLECULE
ASD04590717
  56   61    0    0    0
SMALL
NO_CHARGES


@<TRIPOS>ATOM
   1 N1            -0.0171     1.3231    -0.0119 N.ar    
   2 C2             0.0017    -0.0035    -0.0051 C.ar    
   3 N3             1.1300    -0.6948    -0.0122 N.ar    
   4 C4             2.3048    -0.0729    -0.0266 C.ar    
   5 C5             2.3188     1.3365    -0.0341 C.ar    
   6 C6             1.1073     2.0201    -0.0261 C.ar    
   7 N7             3.6038    -0.5194    -0.0366 N.pl3   
   8 C8             4.4830     0.5450    -0.0505 C.ar    
   9 C9             3.7315     1.7354    -0.0495 C.ar    
  10 N10           -1.2019    -0.6888     0.0103 N.pl3   
  11 C11           -2.4018     0.0118     0.1313 C.ar    
  12 C12            4.0013    -1.9295    -0.0323 C.3     
  13 C13            4.8278    -2.2480    -1.2905 C.3     
  14 N14            5.8065     0.6234    -0.0634 N.ar    
  15 N15            6.4218     1.7493    -0.0751 N.ar    
  16 C16            5.7952     2.9122    -0.0752 C.ar    
  17 C17            4.4116     2.9521    -0.0627 C.ar    
  18 C18            6.2127    -2.7189    -0.8005 C.3     
  19 C19            5.9528    -3.2306     0.6382 C.3     
  20 C20            4.9127    -2.2179     1.1784 C.3     
  21 N21           -2.3783     1.3195     0.3318 N.ar    
  22 C22           -3.4884     2.0228     0.4517 C.ar    
  23 C23           -4.7290     1.4085     0.3712 C.ar    
  24 C24           -4.7935     0.0319     0.1606 C.ar    
  25 C25           -3.6093    -0.6711     0.0340 C.ar    
  26 N26           -5.9023     2.1613     0.5004 N.3     
  27 C27           -5.5952     3.5823     0.7156 C.3     
  28 C28           -6.8999     4.3805     0.7720 C.3     
  29 N29           -7.7448     3.8574     1.8546 N.3     
  30 C30           -8.0518     2.4365     1.6394 C.3     
  31 C31           -6.7472     1.6382     1.5830 C.3     
  32 H32            1.0850     3.0998    -0.0319 H       
  33 H33           -1.2103    -1.6560    -0.0630 H       
  34 H34            3.1173    -2.5661     0.0048 H       
  35 H35            4.3454    -3.0398    -1.8636 H       
  36 H36            4.9332    -1.3535    -1.9043 H       
  37 H37            6.3621     3.8313    -0.0849 H       
  38 H38            3.8786     3.8915    -0.0625 H       
  39 H39            6.5862    -3.5259    -1.4308 H       
  40 H40            6.9163    -1.8865    -0.7880 H       
  41 H41            5.5378    -4.2383     0.6206 H       
  42 H42            6.8671    -3.1984     1.2307 H       
  43 H43            5.4063    -1.3046     1.5105 H       
  44 H44            4.3376    -2.6594     1.9923 H       
  45 H45           -3.4301     3.0888     0.6148 H       
  46 H46           -5.7458    -0.4730     0.0940 H       
  47 H47           -3.6221    -1.7385    -0.1299 H       
  48 H48           -5.0563     3.6995     1.6557 H       
  49 H49           -4.9793     3.9496    -0.1053 H       
  50 H50           -6.6760     5.4305     0.9604 H       
  51 H51           -7.4258     4.2853    -0.1780 H       
  52 H52           -7.3105     4.0013     2.7539 H       
  53 H53           -8.6677     2.0691     2.4603 H       
  54 H54           -8.5908     2.3192     0.6992 H       
  55 H55           -6.9711     0.5883     1.3946 H       
  56 H56           -6.2213     1.7334     2.5330 H       
@<TRIPOS>BOND
   1    1    2 ar
   2    1    6 ar
   3    2    3 ar
   4    2   10 1
   5    3    4 ar
   6    4    5 ar
   7    4    7 1
   8    5    6 ar
   9    5    9 1
  10    6   32 1
  11    7    8 1
  12    7   12 1
  13    8    9 ar
  14    8   14 ar
  15    9   17 ar
  16   10   11 1
  17   10   33 1
  18   11   21 ar
  19   11   25 ar
  20   12   13 1
  21   12   20 1
  22   12   34 1
  23   13   18 1
  24   13   35 1
  25   13   36 1
  26   14   15 ar
  27   15   16 ar
  28   16   17 ar
  29   16   37 1
  30   17   38 1
  31   18   19 1
  32   18   39 1
  33   18   40 1
  34   19   20 1
  35   19   41 1
  36   19   42 1
  37   20   43 1
  38   20   44 1
  39   21   22 ar
  40   22   23 ar
  41   22   45 1
  42   23   24 ar
  43   23   26 1
  44   24   25 ar
  45   24   46 1
  46   25   47 1
  47   26   27 1
  48   26   31 1
  49   27   28 1
  50   27   48 1
  51   27   49 1
  52   28   29 1
  53   28   50 1
  54   28   51 1
  55   29   30 1
  56   29   52 1
  57   30   31 1
  58   30   53 1
  59   30   54 1
  60   31   55 1
  61   31   56 1

#	End of record

