#	Name: ASD04780001
#	Creating user name:	WinNT
#	Creation time:	15. 06. 2019 20:52

#	Modifying user name:	WinNT
#	Modification time:	15. 06. 2019 20:52

#	Program:	/corina/corina34_cracker 3.40 0067  02.08.2006

@<TRIPOS>MOLECULE
ASD04780001
  52   55    0    0    0
SMALL
NO_CHARGES


@<TRIPOS>ATOM
   1 C1             0.4407     1.8993     0.1492 C.3     
   2 O2             0.3553     0.5020    -0.1379 O.3     
   3 C3            -0.8721     0.0095    -0.4418 C.ar    
   4 C4            -1.9897     0.8368    -0.4696 C.ar    
   5 C5            -3.2226     0.2950    -0.7845 C.ar    
   6 N6            -3.3643    -0.9855    -1.0584 N.ar    
   7 C7            -2.3335    -1.8230    -1.0474 C.ar    
   8 C8            -1.0513    -1.3441    -0.7424 C.ar    
   9 C9            -0.1518    -2.5099    -0.8169 C.2     
  10 C10           -0.9497    -3.5861    -1.1562 C.2     
  11 N11           -2.2247    -3.1748    -1.2936 N.pl3   
  12 C12            1.2913    -2.5243    -0.5807 C.2     
  13 O13            1.8695    -1.4960    -0.2879 O.2     
  14 C14            2.0537    -3.8008    -0.6991 C.2     
  15 O15            1.4609    -4.8517    -0.8324 O.2     
  16 N16            3.4008    -3.7875    -0.6582 N.am    
  17 C17            4.1366    -2.5153    -0.6585 C.3     
  18 C18            5.0621    -2.4843     0.5641 C.3     
  19 N19            5.8215    -3.7417     0.6102 N.am    
  20 C20            5.0857    -5.0139     0.6105 C.3     
  21 C21            4.1600    -5.0448    -0.6064 C.3     
  22 C22            3.1939    -6.2252    -0.4868 C.3     
  23 C23            7.1686    -3.7284     0.6511 C.2     
  24 O24            7.7694    -2.6768     0.5474 O.2     
  25 C25            7.9155    -4.9927     0.8222 C.ar    
  26 C26            9.1586    -5.1609     0.2100 C.ar    
  27 C27            9.8506    -6.3430     0.3741 C.ar    
  28 C28            9.3147    -7.3608     1.1430 C.ar    
  29 C29            8.0830    -7.2006     1.7526 C.ar    
  30 C30            7.3833    -6.0213     1.6013 C.ar    
  31 H31            1.4744     2.1612     0.3753 H       
  32 H32            0.1024     2.4694    -0.7160 H       
  33 H33           -0.1893     2.1331     1.0074 H       
  34 H34           -1.8960     1.8895    -0.2475 H       
  35 H35           -4.0904     0.9376    -0.8060 H       
  36 H36           -0.6035    -4.5998    -1.2937 H       
  37 H37           -2.9672    -3.7529    -1.5289 H       
  38 H38            4.7305    -2.4364    -1.5690 H       
  39 H39            3.4321    -1.6853    -0.6051 H       
  40 H40            5.7510    -1.6437     0.4801 H       
  41 H41            4.4665    -2.3831     1.4713 H       
  42 H42            5.7902    -5.8439     0.5571 H       
  43 H43            4.4918    -5.0928     1.5210 H       
  44 H44            4.7535    -5.1453    -1.5151 H       
  45 H45            2.5176    -6.0577     0.3514 H       
  46 H46            2.6166    -6.3169    -1.4068 H       
  47 H47            3.7594    -7.1420    -0.3198 H       
  48 H48            9.5776    -4.3674    -0.3910 H       
  49 H49           10.8125    -6.4744    -0.0990 H       
  50 H50            9.8602    -8.2846     1.2677 H       
  51 H51            7.6703    -7.9990     2.3515 H       
  52 H52            6.4221    -5.8974     2.0779 H       
@<TRIPOS>BOND
   1    1    2 1
   2    1   31 1
   3    1   32 1
   4    1   33 1
   5    2    3 1
   6    3    4 ar
   7    3    8 ar
   8    4    5 ar
   9    4   34 1
  10    5    6 ar
  11    5   35 1
  12    6    7 ar
  13    7    8 ar
  14    7   11 1
  15    8    9 1
  16    9   10 2
  17    9   12 1
  18   10   11 1
  19   10   36 1
  20   11   37 1
  21   12   13 2
  22   12   14 1
  23   14   15 2
  24   14   16 am
  25   16   17 1
  26   16   21 1
  27   17   18 1
  28   17   38 1
  29   17   39 1
  30   18   19 1
  31   18   40 1
  32   18   41 1
  33   19   20 1
  34   19   23 am
  35   20   21 1
  36   20   42 1
  37   20   43 1
  38   21   22 1
  39   21   44 1
  40   22   45 1
  41   22   46 1
  42   22   47 1
  43   23   24 2
  44   23   25 1
  45   25   26 ar
  46   25   30 ar
  47   26   27 ar
  48   26   48 1
  49   27   28 ar
  50   27   49 1
  51   28   29 ar
  52   28   50 1
  53   29   30 ar
  54   29   51 1
  55   30   52 1

#	End of record

