#	Name: ASD01420159
#	Creating user name:	WinNT
#	Creation time:	15. 06. 2019 19:20

#	Modifying user name:	WinNT
#	Modification time:	15. 06. 2019 19:20

#	Program:	/corina/corina34_cracker 3.40 0067  02.08.2006

@<TRIPOS>MOLECULE
ASD01420159
  56   58    0    0    0
SMALL
NO_CHARGES


@<TRIPOS>ATOM
   1 C1            -0.0352     1.0490     0.3139 C.2     
   2 O2             0.1389    -0.1455     0.4595 O.2     
   3 C3             0.9631     3.2947    -0.2167 C.3     
   4 N4             1.0158     1.8594     0.0789 N.am    
   5 C5             2.4307     1.4747     0.0703 C.3     
   6 C6             3.2397     2.7094    -0.2374 C.ar    
   7 C7             4.6056     2.8970    -0.3625 C.ar    
   8 C8             5.1090     4.1498    -0.6549 C.ar    
   9 C9             4.2476     5.2180    -0.8233 C.ar    
  10 C10            2.8845     5.0313    -0.6991 C.ar    
  11 C11            2.3794     3.7761    -0.4057 C.ar    
  12 C12            6.5962     4.3521    -0.7896 C.3     
  13 C13            6.9757     4.3743    -2.2717 C.3     
  14 O14            6.9649     5.5933    -0.1849 O.3     
  15 N15            8.4286     4.5470    -2.4026 N.3     
  16 C16            9.1370     3.2966    -2.0984 C.3     
  17 C17            8.7817     5.0400    -3.7406 C.3     
  18 C18           -1.3976     1.6105     0.3885 C.ar    
  19 C19           -2.2535     1.2437     1.4341 C.ar    
  20 C20           -3.5359     1.7800     1.4944 C.ar    
  21 C21           -3.9597     2.6716     0.5234 C.ar    
  22 C22           -3.1130     3.0339    -0.5110 C.ar    
  23 C23           -1.8382     2.5156    -0.5810 C.ar    
  24 C24           -3.5864     4.0044    -1.5622 C.3     
  25 C25           -4.8147     3.4297    -2.2708 C.3     
  26 C26           -3.9550     5.3336    -0.9002 C.3     
  27 O27           -1.8344     0.3690     2.3838 O.3     
  28 O28           -4.3733     1.4282     2.5067 O.3     
  29 H29            0.3908     3.4633    -1.1289 H       
  30 H30            0.5000     3.8263     0.6146 H       
  31 H31            2.7128     1.0823     1.0473 H       
  32 H32            2.6036     0.7193    -0.6962 H       
  33 H33            5.2787     2.0627    -0.2310 H       
  34 H34            4.6401     6.1979    -1.0516 H       
  35 H35            2.2118     5.8660    -0.8304 H       
  36 H36            7.1205     3.5359    -0.2925 H       
  37 H37            6.6782     3.4346    -2.7370 H       
  38 H38            6.4656     5.2016    -2.7650 H       
  39 H39            6.5351     6.3652    -0.5780 H       
  40 H40            8.8138     2.5185    -2.7899 H       
  41 H41           10.2107     3.4525    -2.2030 H       
  42 H42            8.9120     2.9909    -1.0766 H       
  43 H43            8.3698     6.0395    -3.8799 H       
  44 H44            9.8666     5.0772    -3.8395 H       
  45 H45            8.3708     4.3692    -4.4951 H       
  46 H46           -4.9557     3.0863     0.5727 H       
  47 H47           -1.1809     2.8057    -1.3874 H       
  48 H48           -2.7913     4.1688    -2.2894 H       
  49 H49           -5.6099     3.2653    -1.5436 H       
  50 H50           -5.1571     4.1317    -3.0311 H       
  51 H51           -4.5522     2.4827    -2.7424 H       
  52 H52           -3.0799     5.7430    -0.3954 H       
  53 H53           -4.2974     6.0356    -1.6606 H       
  54 H54           -4.7501     5.1692    -0.1731 H       
  55 H55           -1.4086     0.7882     3.1441 H       
  56 H56           -4.3113     1.9991     3.2847 H       
@<TRIPOS>BOND
   1    1    2 2
   2    1    4 am
   3    1   18 1
   4    3    4 1
   5    3   11 1
   6    3   29 1
   7    3   30 1
   8    4    5 1
   9    5    6 1
  10    5   31 1
  11    5   32 1
  12    6    7 ar
  13    6   11 ar
  14    7    8 ar
  15    7   33 1
  16    8    9 ar
  17    8   12 1
  18    9   10 ar
  19    9   34 1
  20   10   11 ar
  21   10   35 1
  22   12   13 1
  23   12   14 1
  24   12   36 1
  25   13   15 1
  26   13   37 1
  27   13   38 1
  28   14   39 1
  29   15   16 1
  30   15   17 1
  31   16   40 1
  32   16   41 1
  33   16   42 1
  34   17   43 1
  35   17   44 1
  36   17   45 1
  37   18   19 ar
  38   18   23 ar
  39   19   20 ar
  40   19   27 1
  41   20   21 ar
  42   20   28 1
  43   21   22 ar
  44   21   46 1
  45   22   23 ar
  46   22   24 1
  47   23   47 1
  48   24   25 1
  49   24   26 1
  50   24   48 1
  51   25   49 1
  52   25   50 1
  53   25   51 1
  54   26   52 1
  55   26   53 1
  56   26   54 1
  57   27   55 1
  58   28   56 1

#	End of record

