#	Name: ASD05790064
#	Creating user name:	WinNT
#	Creation time:	15. 06. 2019 21:03

#	Modifying user name:	WinNT
#	Modification time:	15. 06. 2019 21:03

#	Program:	/corina/corina34_cracker 3.40 0067  02.08.2006

@<TRIPOS>MOLECULE
ASD05790064
  93   97    0    0    0
SMALL
NO_CHARGES


@<TRIPOS>ATOM
   1 C1             2.8373     1.2128    -1.1399 C.3     
   2 C2             3.1566    -0.2497    -1.3587 C.2     
   3 C3             3.8567    -0.6451    -2.6370 C.3     
   4 C4             5.1116     0.2222    -2.8000 C.3     
   5 C5             4.7092     1.7059    -2.7257 C.3     
   6 C6             4.1177     2.0247    -1.3572 C.3     
   7 C7             5.7399    -0.0834    -4.1629 C.3     
   8 C8             4.7596     0.2610    -5.2988 C.3     
   9 C9             4.4325     1.7360    -5.1836 C.3     
  10 C10            3.7088     1.9593    -3.8300 C.3     
  11 C11            3.3913     2.2751    -6.1727 C.3     
  12 C12            2.8307     3.5141    -5.4780 C.2     
  13 C13            3.1724     3.3769    -3.9880 C.3     
  14 C14            4.0790     2.6496    -7.4725 C.3     
  15 C15            3.1596     3.1834    -8.5158 C.3     
  16 C16            2.7792     4.6365    -8.3709 C.3     
  17 C17            1.6884     4.8361    -7.3335 C.3     
  18 C18            2.1544     4.4684    -5.9711 C.2     
  19 C19            2.2743     5.1726    -9.7383 C.3     
  20 C20            3.2564     6.3066   -10.0583 C.3     
  21 C21            4.5012     5.8377    -9.2541 C.3     
  22 O22            3.9453     5.4197    -8.0146 O.3     
  23 N23            3.6740     6.3937   -11.4535 N.3     
  24 C24            4.6797     7.4620   -11.5930 C.3     
  25 C25            5.9036     7.2231   -10.7136 C.3     
  26 C26            5.4910     6.9829    -9.2495 C.3     
  27 C27            5.9438     2.5786    -2.9607 C.3     
  28 C28            1.7206     5.4648    -4.9270 C.3     
  29 C29            6.8195     8.4467   -10.7835 C.3     
  30 C30            2.3460     4.0793   -10.8062 C.3     
  31 C31            2.5230     6.6361   -12.3334 C.3     
  32 O32            2.8598    -1.0790    -0.5326 O.2     
  33 C33            3.0194     6.9906   -13.7366 C.3     
  34 N34            1.8683     7.2331   -14.6165 N.4     
  35 C35            1.0705     8.3456   -14.0838 C.3     
  36 C36            2.3450     7.5734   -15.9637 C.3     
  37 C37            1.0384     6.0227   -14.6819 C.3     
  38 H38            2.0750     1.5324    -1.8504 H       
  39 H39            2.4766     1.3616    -0.1221 H       
  40 H40            4.1425    -1.6958    -2.5873 H       
  41 H41            3.1893    -0.4852    -3.4838 H       
  42 H42            5.8196    -0.0051    -2.0031 H       
  43 H43            3.8857     3.0883    -1.3020 H       
  44 H44            4.8418     1.7729    -0.5823 H       
  45 H45            6.6484     0.5071    -4.2806 H       
  46 H46            5.9911    -1.1428    -4.2135 H       
  47 H47            5.2248     0.0589    -6.2636 H       
  48 H48            3.8494    -0.3296    -5.1945 H       
  49 H49            5.3465     2.3284    -5.2257 H       
  50 H50            2.8762     1.2618    -3.7389 H       
  51 H51            2.6039     1.5400    -6.3391 H       
  52 H52            2.2775     3.5124    -3.3808 H       
  53 H53            3.9349     4.1032    -3.7065 H       
  54 H54            4.8367     3.4037    -7.2592 H       
  55 H55            4.5771     1.7648    -7.8688 H       
  56 H56            3.6332     3.0501    -9.4885 H       
  57 H57            2.2462     2.5886    -8.5023 H       
  58 H58            1.3834     5.8826    -7.3348 H       
  59 H59            0.8306     4.2166    -7.5953 H       
  60 H60            1.2575     5.5551    -9.6493 H       
  61 H61            2.8848     7.2631    -9.6907 H       
  62 H62            4.9564     4.9835    -9.7552 H       
  63 H63            4.9976     7.5143   -12.6343 H       
  64 H64            4.2256     8.4133   -11.3157 H       
  65 H65            6.4440     6.3508   -11.0811 H       
  66 H66            5.0219     7.8789    -8.8431 H       
  67 H67            6.3652     6.7169    -8.6552 H       
  68 H68            6.4377     2.2689    -3.8817 H       
  69 H69            5.6404     3.6222    -3.0443 H       
  70 H70            6.6327     2.4665    -2.1235 H       
  71 H71            1.1455     6.2604    -5.4007 H       
  72 H72            1.1027     4.9642    -4.1815 H       
  73 H73            2.5999     5.8906    -4.4436 H       
  74 H74            6.2800     9.3250   -10.4291 H       
  75 H75            7.6957     8.2810   -10.1567 H       
  76 H76            7.1352     8.6057   -11.8146 H       
  77 H77            1.9224     3.1563   -10.4103 H       
  78 H78            1.7803     4.3913   -11.6842 H       
  79 H79            3.3862     3.9114   -11.0850 H       
  80 H80            1.9072     5.7381   -12.3819 H       
  81 H81            1.9310     7.4616   -11.9381 H       
  82 H82            3.6351     7.8887   -13.6880 H       
  83 H83            3.6113     6.1651   -14.1318 H       
  84 H84            1.6863     9.2437   -14.0352 H       
  85 H85            0.2164     8.5255   -14.7367 H       
  86 H86            0.7169     8.0931   -13.0841 H       
  87 H87            2.9369     6.7479   -16.3590 H       
  88 H88            1.4909     7.7533   -16.6166 H       
  89 H89            2.9607     8.4715   -15.9152 H       
  90 H90            0.6848     5.7702   -13.6823 H       
  91 H91            0.1844     6.2026   -15.3348 H       
  92 H92            1.6304     5.1972   -15.0772 H       
  93 I93           12.6957    14.3250     4.8779 I       
@<TRIPOS>BOND
   1    1    2 1
   2    1    6 1
   3    1   38 1
   4    1   39 1
   5    2    3 1
   6    2   32 2
   7    3    4 1
   8    3   40 1
   9    3   41 1
  10    4    5 1
  11    4    7 1
  12    4   42 1
  13    5    6 1
  14    5   27 1
  15    5   10 1
  16    6   43 1
  17    6   44 1
  18    7    8 1
  19    7   45 1
  20    7   46 1
  21    8    9 1
  22    8   47 1
  23    8   48 1
  24    9   10 1
  25    9   11 1
  26    9   49 1
  27   10   13 1
  28   10   50 1
  29   11   12 1
  30   11   14 1
  31   11   51 1
  32   12   13 1
  33   12   18 2
  34   13   52 1
  35   13   53 1
  36   14   15 1
  37   14   54 1
  38   14   55 1
  39   15   16 1
  40   15   56 1
  41   15   57 1
  42   16   17 1
  43   16   22 1
  44   16   19 1
  45   17   18 1
  46   17   58 1
  47   17   59 1
  48   18   28 1
  49   19   30 1
  50   19   20 1
  51   19   60 1
  52   20   21 1
  53   20   23 1
  54   20   61 1
  55   21   22 1
  56   21   26 1
  57   21   62 1
  58   23   24 1
  59   23   31 1
  60   24   25 1
  61   24   63 1
  62   24   64 1
  63   25   26 1
  64   25   29 1
  65   25   65 1
  66   26   66 1
  67   26   67 1
  68   27   68 1
  69   27   69 1
  70   27   70 1
  71   28   71 1
  72   28   72 1
  73   28   73 1
  74   29   74 1
  75   29   75 1
  76   29   76 1
  77   30   77 1
  78   30   78 1
  79   30   79 1
  80   31   33 1
  81   31   80 1
  82   31   81 1
  83   33   34 1
  84   33   82 1
  85   33   83 1
  86   34   35 1
  87   34   36 1
  88   34   37 1
  89   35   84 1
  90   35   85 1
  91   35   86 1
  92   36   87 1
  93   36   88 1
  94   36   89 1
  95   37   90 1
  96   37   91 1
  97   37   92 1

#	End of record

