#	Name: ASD01885615
#	Creating user name:	WinNT
#	Creation time:	15. 06. 2019 19:49

#	Modifying user name:	WinNT
#	Modification time:	15. 06. 2019 19:49

#	Program:	/corina/corina34_cracker 3.40 0067  02.08.2006

@<TRIPOS>MOLECULE
ASD01885615
  44   47    0    0    0
SMALL
NO_CHARGES


@<TRIPOS>ATOM
   1 C1            -0.0168     1.3886     0.0097 C.ar    
   2 C2             0.0021    -0.0041     0.0020 C.ar    
   3 N3            -1.1222    -0.6917     0.0090 N.ar    
   4 C4            -2.3045    -0.0947     0.0235 C.ar    
   5 C5            -2.4036     1.2945     0.0319 C.ar    
   6 C6            -1.2502     2.0525     0.0309 C.ar    
   7 C7             1.2497     2.1570     0.0017 C.2     
   8 N8            -3.4607    -0.8642     0.0299 N.pl3   
   9 C9             1.6038     2.9637     1.1106 C.2     
  10 C10            2.7550     3.6612     1.1014 C.2     
  11 N11            3.5988     3.6054     0.0292 N.pl3   
  12 C12            3.2930     2.8352    -1.0666 C.2     
  13 C13            2.1010     2.0894    -1.0865 C.2     
  14 C14            4.7973     4.1887    -0.2496 C.2     
  15 N15            5.1668     3.7822    -1.4367 N.2     
  16 N16            4.2869     2.9828    -1.9291 N.2     
  17 C17            5.5588     5.1316     0.6460 C.3     
  18 C18            6.5009     4.3303     1.5467 C.3     
  19 Cl19           1.6973     1.1097    -2.4616 Cl      
  20 C20           -4.7734    -0.2139     0.0458 C.3     
  21 C21           -5.1879     0.1333    -1.3854 C.3     
  22 C22           -5.8050    -1.1625     0.6597 C.3     
  23 C23            7.4514     5.1164     2.4519 C.3     
  24 C24            6.2514     4.3838     3.0553 C.3     
  25 H25            0.9476    -0.5258    -0.0101 H       
  26 H26           -3.3718     1.7729     0.0433 H       
  27 H27           -1.2975     3.1315     0.0376 H       
  28 H28           -3.3991    -1.8322     0.0238 H       
  29 H29            0.9476     3.0198     1.9665 H       
  30 H30            3.0145     4.2729     1.9528 H       
  31 H31            6.1401     5.8226     0.0356 H       
  32 H32            4.8571     5.6934     1.2625 H       
  33 H33            6.8647     3.3913     1.1294 H       
  34 H34           -4.7197     0.6983     0.6400 H       
  35 H35           -4.4530     0.8091    -1.8227 H       
  36 H36           -5.2416    -0.7789    -1.9796 H       
  37 H37           -6.1646     0.6172    -1.3735 H       
  38 H38           -5.5097    -1.4099     1.6793 H       
  39 H39           -6.7817    -0.6786     0.6716 H       
  40 H40           -5.8587    -2.0747     0.0655 H       
  41 H41            8.4404     4.6945     2.6304 H       
  42 H42            7.4056     6.2045     2.4057 H       
  43 H43            5.4161     4.9899     3.4061 H       
  44 H44            6.4509     3.4799     3.6308 H       
@<TRIPOS>BOND
   1    1    2 ar
   2    1    7 1
   3    1    6 ar
   4    2    3 ar
   5    2   25 1
   6    3    4 ar
   7    4    5 ar
   8    4    8 1
   9    5    6 ar
  10    5   26 1
  11    6   27 1
  12    7    9 1
  13    7   13 2
  14    8   20 1
  15    8   28 1
  16    9   10 2
  17    9   29 1
  18   10   11 1
  19   10   30 1
  20   11   12 1
  21   11   14 1
  22   12   13 1
  23   12   16 2
  24   13   19 1
  25   14   15 2
  26   14   17 1
  27   15   16 1
  28   17   18 1
  29   17   31 1
  30   17   32 1
  31   18   23 1
  32   18   24 1
  33   18   33 1
  34   20   21 1
  35   20   22 1
  36   20   34 1
  37   21   35 1
  38   21   36 1
  39   21   37 1
  40   22   38 1
  41   22   39 1
  42   22   40 1
  43   23   24 1
  44   23   41 1
  45   23   42 1
  46   24   43 1
  47   24   44 1

#	End of record

