#	Name: ASD07301225
#	Creating user name:	WinNT
#	Creation time:	15. 06. 2019 21:11

#	Modifying user name:	WinNT
#	Modification time:	15. 06. 2019 21:11

#	Program:	/corina/corina34_cracker 3.40 0067  02.08.2006

@<TRIPOS>MOLECULE
ASD07301225
  31   31    0    0    0
SMALL
NO_CHARGES


@<TRIPOS>ATOM
   1 C1             1.2970     0.3935    -0.6682 C.3     
   2 C2             0.0071    -0.0049     0.0015 C.2     
   3 C3             0.0342    -0.8358     1.2058 C.2     
   4 C4            -0.1095    -2.2879     1.0961 C.2     
   5 C5            -0.0816    -3.1436     2.3363 C.3     
   6 O6            -1.0542     0.3634    -0.4578 O.2     
   7 O7            -0.2513    -2.8031     0.0064 O.2     
   8 N8             0.1889    -0.2736     2.3948 N.2     
   9 N9             0.4116     0.9938     2.4849 N.pl3   
  10 C10            0.6803     1.5681     3.7276 C.ar    
  11 C11            0.9216     2.9387     3.8277 C.ar    
  12 C12            1.1878     3.5025     5.0648 C.ar    
  13 C13            1.2144     2.7079     6.1959 C.ar    
  14 C14            0.9754     1.3492     6.0980 C.ar    
  15 C15            0.7029     0.7784     4.8698 C.ar    
  16 O16            0.8959     3.7183     2.7147 O.3     
  17 C17            1.1521     5.1127     2.8934 C.3     
  18 F18            0.1935     5.6563     3.7553 F       
  19 F19            2.4263     5.2859     3.4444 F       
  20 H20            1.6129    -0.3977    -1.3480 H       
  21 H21            1.1453     1.3156    -1.2294 H       
  22 H22            2.0657     0.5510     0.0884 H       
  23 H23            0.0527    -2.5093     3.2125 H       
  24 H24           -1.0216    -3.6886     2.4230 H       
  25 H25            0.7443    -3.8519     2.2705 H       
  26 H26            0.3923     1.5475     1.6887 H       
  27 H27            1.3750     4.5630     5.1457 H       
  28 H28            1.4229     3.1496     7.1592 H       
  29 H29            0.9978     0.7332     6.9849 H       
  30 H30            0.5120    -0.2821     4.7973 H       
  31 H31            1.1016     5.6179     1.9289 H       
@<TRIPOS>BOND
   1    1    2 1
   2    1   20 1
   3    1   21 1
   4    1   22 1
   5    2    3 1
   6    2    6 2
   7    3    4 1
   8    3    8 2
   9    4    5 1
  10    4    7 2
  11    5   23 1
  12    5   24 1
  13    5   25 1
  14    8    9 1
  15    9   10 1
  16    9   26 1
  17   10   11 ar
  18   10   15 ar
  19   11   12 ar
  20   11   16 1
  21   12   13 ar
  22   12   27 1
  23   13   14 ar
  24   13   28 1
  25   14   15 ar
  26   14   29 1
  27   15   30 1
  28   16   17 1
  29   17   18 1
  30   17   19 1
  31   17   31 1

#	End of record

