#	Name: ASD03430282
#	Creating user name:	WinNT
#	Creation time:	15. 06. 2019 20:40

#	Modifying user name:	WinNT
#	Modification time:	15. 06. 2019 20:40

#	Program:	/corina/corina34_cracker 3.40 0067  02.08.2006

@<TRIPOS>MOLECULE
ASD03430282
  71   76    0    0    0
SMALL
NO_CHARGES


@<TRIPOS>ATOM
   1 C1            -0.0169     1.3780     0.0221 C.ar    
   2 C2             0.0017    -0.0039     0.0169 C.ar    
   3 C3             1.2020    -0.6814    -0.0063 C.ar    
   4 C4             2.4087     0.0135    -0.0133 C.ar    
   5 C5             2.3854     1.4045    -0.0130 C.ar    
   6 C6             1.1788     2.0825     0.0043 C.ar    
   7 O7             3.4706    -0.8407    -0.0069 O.3     
   8 C8             1.5504    -2.1452    -0.0426 C.3     
   9 C9             3.0341    -2.1447    -0.4363 C.3     
  10 C10            0.4312    -3.8607     1.0181 C.ar    
  11 C11            1.3214    -2.8210     1.2765 C.ar    
  12 C12            0.7119    -2.9050    -1.0301 C.2     
  13 N13            0.0948    -3.8828    -0.3374 N.am    
  14 O14            0.6097    -2.6821    -2.2179 O.2     
  15 C15            1.7942    -2.6045     2.5512 C.ar    
  16 C16            1.3864    -3.4226     3.5902 C.ar    
  17 C17            0.5032    -4.4577     3.3450 C.ar    
  18 C18            0.0265    -4.6789     2.0694 C.ar    
  19 C19           -0.8218    -4.8559    -0.9367 C.3     
  20 C20           -2.2503    -4.3104    -0.8843 C.3     
  21 C21           -3.2229    -5.3272    -1.5127 C.3     
  22 C22           -4.2284    -5.6415    -0.3783 C.3     
  23 C23           -4.0655    -4.4111     0.5501 C.3     
  24 O24           -2.6523    -4.1233     0.4830 O.3     
  25 O25            1.1649     3.4414     0.0038 O.3     
  26 C26           -0.1110     4.0770    -0.0972 C.3     
  27 C27           -0.7619     4.2407     1.2989 C.3     
  28 C28            0.0378     5.5546    -0.5467 C.3     
  29 C29           -1.2226     6.2233     0.0411 C.3     
  30 N30           -1.6854     5.3806     1.1534 N.am    
  31 O31           -3.5412     6.6930     1.6801 O.3     
  32 C32           -4.6979     6.8785     2.5380 C.3     
  33 C33           -4.2392     7.0061     3.9920 C.3     
  34 C34           -5.4411     8.1502     2.1242 C.3     
  35 C35           -5.6322     5.6746     2.4017 C.3     
  36 C36           -2.7741     5.6115     1.9137 C.2     
  37 O37           -3.0632     4.8436     2.8099 O.2     
  38 H38           -0.9580     1.9075     0.0355 H       
  39 H39           -0.9272    -0.5548     0.0313 H       
  40 H40            3.3129     1.9578    -0.0259 H       
  41 H41            3.1484    -2.2555    -1.5146 H       
  42 H42            3.5755    -2.9282     0.0940 H       
  43 H43            2.4843    -1.7955     2.7404 H       
  44 H44            1.7575    -3.2531     4.5902 H       
  45 H45            0.1853    -5.0963     4.1558 H       
  46 H46           -0.6630    -5.4895     1.8857 H       
  47 H47           -0.5378    -5.0315    -1.9743 H       
  48 H48           -0.7702    -5.7929    -0.3823 H       
  49 H49           -2.3053    -3.3638    -1.4220 H       
  50 H50           -3.7369    -4.8861    -2.3667 H       
  51 H51           -2.6904    -6.2301    -1.8114 H       
  52 H52           -5.2451    -5.7043    -0.7660 H       
  53 H53           -3.9543    -6.5597     0.1412 H       
  54 H54           -4.6470    -3.5684     0.1761 H       
  55 H55           -4.3588    -4.6585     1.5703 H       
  56 H56           -0.7669     3.5269    -0.7720 H       
  57 H57           -1.3117     3.3392     1.5692 H       
  58 H58           -0.0018     4.4616     2.0483 H       
  59 H59            0.9409     5.9967    -0.1257 H       
  60 H60            0.0420     5.6283    -1.6342 H       
  61 H61           -0.9766     7.2197     0.4084 H       
  62 H62           -1.9980     6.2883    -0.7222 H       
  63 H63           -3.5736     7.8638     4.0891 H       
  64 H64           -5.1076     7.1453     4.6360 H       
  65 H65           -3.7098     6.1001     4.2868 H       
  66 H66           -5.7679     8.0593     1.0883 H       
  67 H67           -6.3094     8.2894     2.7682 H       
  68 H68           -4.7755     9.0079     2.2212 H       
  69 H69           -5.1027     4.7686     2.6965 H       
  70 H70           -6.5005     5.8138     3.0457 H       
  71 H71           -5.9590     5.5837     1.3658 H       
@<TRIPOS>BOND
   1    1    2 ar
   2    1    6 ar
   3    1   38 1
   4    2    3 ar
   5    2   39 1
   6    3    4 ar
   7    3    8 1
   8    4    5 ar
   9    4    7 1
  10    5    6 ar
  11    5   40 1
  12    6   25 1
  13    7    9 1
  14    8    9 1
  15    8   11 1
  16    8   12 1
  17    9   41 1
  18    9   42 1
  19   10   11 ar
  20   10   13 1
  21   10   18 ar
  22   11   15 ar
  23   12   13 am
  24   12   14 2
  25   13   19 1
  26   15   16 ar
  27   15   43 1
  28   16   17 ar
  29   16   44 1
  30   17   18 ar
  31   17   45 1
  32   18   46 1
  33   19   20 1
  34   19   47 1
  35   19   48 1
  36   20   21 1
  37   20   24 1
  38   20   49 1
  39   21   22 1
  40   21   50 1
  41   21   51 1
  42   22   23 1
  43   22   52 1
  44   22   53 1
  45   23   24 1
  46   23   54 1
  47   23   55 1
  48   25   26 1
  49   26   27 1
  50   26   28 1
  51   26   56 1
  52   27   30 1
  53   27   57 1
  54   27   58 1
  55   28   29 1
  56   28   59 1
  57   28   60 1
  58   29   30 1
  59   29   61 1
  60   29   62 1
  61   30   36 am
  62   31   32 1
  63   31   36 1
  64   32   33 1
  65   32   34 1
  66   32   35 1
  67   33   63 1
  68   33   64 1
  69   33   65 1
  70   34   66 1
  71   34   67 1
  72   34   68 1
  73   35   69 1
  74   35   70 1
  75   35   71 1
  76   36   37 2

#	End of record

