#	Name: ASD01884659
#	Creating user name:	WinNT
#	Creation time:	15. 06. 2019 19:48

#	Modifying user name:	WinNT
#	Modification time:	15. 06. 2019 19:48

#	Program:	/corina/corina34_cracker 3.40 0067  02.08.2006

@<TRIPOS>MOLECULE
ASD01884659
  42   44    0    0    0
SMALL
NO_CHARGES


@<TRIPOS>ATOM
   1 C1            -0.0543     1.3503     0.0176 C.2     
   2 C2            -0.0291    -0.0112     0.0089 C.2     
   3 C3             1.2162    -0.6760    -0.0082 C.2     
   4 C4             2.3711     0.0514    -0.0156 C.2     
   5 N5             2.3319     1.4070    -0.0067 N.am    
   6 C6             1.1572     2.0640     0.0095 C.2     
   7 O7             1.1436     3.2844     0.0169 O.2     
   8 C8             1.2693    -2.1589    -0.0175 C.ar    
   9 C9             3.5847     2.1664    -0.0150 C.3     
  10 C10            3.9996     2.4356    -1.4385 C.ar    
  11 C11            3.4096     3.4677    -2.1480 C.ar    
  12 C12            3.7917     3.7147    -3.4557 C.ar    
  13 C13            4.7622     2.9301    -4.0516 C.ar    
  14 C14            5.3508     1.8989    -3.3409 C.ar    
  15 C15            4.9732     1.6557    -2.0339 C.ar    
  16 F16            2.4613     4.2331    -1.5649 F       
  17 Cl17           5.2416     3.2385    -5.6914 Cl      
  18 C18            0.7962    -2.8811     1.0768 C.ar    
  19 C19            1.7870    -2.8319    -1.1228 C.ar    
  20 C20            1.8354    -4.2099    -1.1292 C.ar    
  21 C21            1.3681    -4.9277    -0.0350 C.ar    
  22 C22            0.8466    -4.2591     1.0659 C.ar    
  23 N23            1.4173    -6.3257    -0.0441 N.am    
  24 C24            1.6570    -6.9991     1.0985 C.2     
  25 C25            1.5913    -8.5046     1.1139 C.3     
  26 O26            1.9256    -6.3933     2.1144 O.2     
  27 H27           -0.9968     1.8775     0.0262 H       
  28 H28           -0.9501    -0.5752     0.0153 H       
  29 H29            3.3240    -0.4568    -0.0282 H       
  30 H30            3.4395     3.1126     0.5063 H       
  31 H31            4.3620     1.5904     0.4873 H       
  32 H32            3.3318     4.5193    -4.0102 H       
  33 H33            6.1087     1.2864    -3.8065 H       
  34 H34            5.4332     0.8507    -1.4801 H       
  35 H35            0.3909    -2.3619     1.9327 H       
  36 H36            2.1497    -2.2744    -1.9738 H       
  37 H37            2.2365    -4.7318    -1.9855 H       
  38 H38            0.4844    -4.8190     1.9154 H       
  39 H39            1.2790    -6.8105    -0.8728 H       
  40 H40            1.3386    -8.8674     0.1176 H       
  41 H41            2.5591    -8.9074     1.4127 H       
  42 H42            0.8288    -8.8277     1.8226 H       
@<TRIPOS>BOND
   1    1    2 2
   2    1    6 1
   3    1   27 1
   4    2    3 1
   5    2   28 1
   6    3    4 2
   7    3    8 1
   8    4    5 1
   9    4   29 1
  10    5    6 am
  11    5    9 1
  12    6    7 2
  13    8   18 ar
  14    8   19 ar
  15    9   10 1
  16    9   30 1
  17    9   31 1
  18   10   11 ar
  19   10   15 ar
  20   11   12 ar
  21   11   16 1
  22   12   13 ar
  23   12   32 1
  24   13   14 ar
  25   13   17 1
  26   14   15 ar
  27   14   33 1
  28   15   34 1
  29   18   22 ar
  30   18   35 1
  31   19   20 ar
  32   19   36 1
  33   20   21 ar
  34   20   37 1
  35   21   22 ar
  36   21   23 1
  37   22   38 1
  38   23   24 am
  39   23   39 1
  40   24   25 1
  41   24   26 2
  42   25   40 1
  43   25   41 1
  44   25   42 1

#	End of record

