#	Name: ASD01885530
#	Creating user name:	WinNT
#	Creation time:	15. 06. 2019 19:49

#	Modifying user name:	WinNT
#	Modification time:	15. 06. 2019 19:49

#	Program:	/corina/corina34_cracker 3.40 0067  02.08.2006

@<TRIPOS>MOLECULE
ASD01885530
  57   60    0    0    0
SMALL
NO_CHARGES


@<TRIPOS>ATOM
   1 C1            -0.0957     1.7485    -0.4976 C.ar    
   2 C2            -0.1851     0.3699    -0.4486 C.ar    
   3 C3             0.9585    -0.3919    -0.2979 C.ar    
   4 C4             2.1915     0.2248    -0.1967 C.ar    
   5 C5             2.2809     1.6034    -0.2466 C.ar    
   6 C6             1.1372     2.3652    -0.3959 C.ar    
   7 C7             3.6251     2.2757    -0.1358 C.3     
   8 C8             3.5048     3.7332    -0.5868 C.3     
   9 C9             4.8798     4.4038    -0.5057 C.3     
  10 N10            5.4089     4.2347     0.8545 N.pl3   
  11 C11            5.4828     2.8808     1.4206 C.3     
  12 C12            4.1011     2.2274     1.3179 C.3     
  13 C13            5.8301     5.3299     1.5885 C.2     
  14 C14            4.9157     6.3383     1.9608 C.2     
  15 C15            5.3428     7.3991     2.6768 C.2     
  16 N16            6.6462     7.5128     3.0472 N.am    
  17 C17            7.5492     6.5729     2.7119 C.2     
  18 C18            7.1555     5.4512     1.9747 C.2     
  19 O19            8.7145     6.6973     3.0563 O.2     
  20 Cl20           8.3140     4.2342     1.5382 Cl      
  21 C21            7.0761     8.6813     3.8191 C.3     
  22 C22            7.5062     9.7948     2.8620 C.3     
  23 F23            4.5476     1.6104    -0.9504 F       
  24 C24            7.8805    11.1465     3.4734 C.3     
  25 C25            8.9706    10.2361     2.9043 C.3     
  26 C26           -1.5293    -0.3024    -0.5589 C.3     
  27 C27           -1.5081    -1.6165     0.2246 C.3     
  28 O28           -2.5370     0.5564    -0.0213 O.3     
  29 C29           -1.8362    -0.5906    -2.0298 C.3     
  30 H30           -0.9887     2.3435    -0.6198 H       
  31 H31            0.8886    -1.4690    -0.2588 H       
  32 H32            3.0849    -0.3704    -0.0782 H       
  33 H33            1.2071     3.4423    -0.4353 H       
  34 H34            3.1434     3.7674    -1.6146 H       
  35 H35            2.8050     4.2586     0.0631 H       
  36 H36            5.5566     3.9374    -1.2216 H       
  37 H37            4.7822     5.4659    -0.7304 H       
  38 H38            6.2088     2.2903     0.8617 H       
  39 H39            5.7831     2.9381     2.4668 H       
  40 H40            3.3956     2.7669     1.9498 H       
  41 H41            4.1641     1.1898     1.6457 H       
  42 H42            3.8775     6.2612     1.6733 H       
  43 H43            4.6398     8.1688     2.9594 H       
  44 H44            6.2497     9.0325     4.4372 H       
  45 H45            7.9158     8.4063     4.4574 H       
  46 H46            7.0059     9.8017     1.8937 H       
  47 H47            7.6267    12.0426     2.9071 H       
  48 H48            7.8203    11.2425     4.5575 H       
  49 H49            9.6275     9.7332     3.6139 H       
  50 H50            9.4340    10.5333     1.9635 H       
  51 H51           -1.2894    -1.4112     1.2725 H       
  52 H52           -2.4803    -2.1028     0.1448 H       
  53 H53           -0.7394    -2.2716    -0.1854 H       
  54 H54           -2.6071     1.4098    -0.4707 H       
  55 H55           -1.0676    -1.2457    -2.4398 H       
  56 H56           -2.8085    -1.0769    -2.1096 H       
  57 H57           -1.8513     0.3456    -2.5879 H       
@<TRIPOS>BOND
   1    1    2 ar
   2    1    6 ar
   3    1   30 1
   4    2    3 ar
   5    2   26 1
   6    3    4 ar
   7    3   31 1
   8    4    5 ar
   9    4   32 1
  10    5    6 ar
  11    5    7 1
  12    6   33 1
  13    7    8 1
  14    7   23 1
  15    7   12 1
  16    8    9 1
  17    8   34 1
  18    8   35 1
  19    9   10 1
  20    9   36 1
  21    9   37 1
  22   10   11 1
  23   10   13 1
  24   11   12 1
  25   11   38 1
  26   11   39 1
  27   12   40 1
  28   12   41 1
  29   13   14 1
  30   13   18 2
  31   14   15 2
  32   14   42 1
  33   15   16 1
  34   15   43 1
  35   16   17 am
  36   16   21 1
  37   17   19 2
  38   17   18 1
  39   18   20 1
  40   21   22 1
  41   21   44 1
  42   21   45 1
  43   22   24 1
  44   22   25 1
  45   22   46 1
  46   24   25 1
  47   24   47 1
  48   24   48 1
  49   25   49 1
  50   25   50 1
  51   26   27 1
  52   26   28 1
  53   26   29 1
  54   27   51 1
  55   27   52 1
  56   27   53 1
  57   28   54 1
  58   29   55 1
  59   29   56 1
  60   29   57 1

#	End of record

