#	Name: ASD04882313
#	Creating user name:	WinNT
#	Creation time:	15. 06. 2019 20:54

#	Modifying user name:	WinNT
#	Modification time:	15. 06. 2019 20:54

#	Program:	/corina/corina34_cracker 3.40 0067  02.08.2006

@<TRIPOS>MOLECULE
ASD04882313
  80   85    0    0    0
SMALL
NO_CHARGES


@<TRIPOS>ATOM
   1 N1            -0.0169     1.3966     0.0097 N.am    
   2 C2             0.1088     0.0021    -0.0336 C.ar    
   3 C3            -1.0291    -0.8056     0.0465 C.ar    
   4 C4            -0.9057    -2.1897     0.0037 C.ar    
   5 C5             0.3373    -2.7699    -0.1174 C.ar    
   6 C6             1.4794    -1.9681    -0.1975 C.ar    
   7 C7             1.3577    -0.5762    -0.1614 C.ar    
   8 N8            -2.2878    -0.2233     0.1699 N.3     
   9 C9            -3.1541    -0.5981    -0.9564 C.3     
  10 C10           -2.9106    -0.5819     1.4517 C.3     
  11 C11           -4.2539     0.1398     1.5827 C.3     
  12 N12           -5.1203    -0.2350     0.4564 N.3     
  13 C13           -4.4974     0.1236    -0.8255 C.3     
  14 C14            2.8110    -2.5900    -0.3267 C.2     
  15 O15            3.8040    -1.8916    -0.3963 O.2     
  16 C16            0.9216     2.1759    -0.5633 C.2     
  17 C17            0.7443     3.6478    -0.5956 C.2     
  18 O18            1.9130     1.6724    -1.0534 O.2     
  19 N19            2.9268    -3.9321    -0.3674 N.am    
  20 C20           -6.3829     0.3492     0.5801 C.ar    
  21 C21           -6.5090     1.7317     0.6236 C.ar    
  22 C22           -7.5161    -0.4512     0.6543 C.ar    
  23 C23           -8.7629     0.1296     0.7766 C.ar    
  24 C24           -8.8844     1.5065     0.8249 C.ar    
  25 C25           -7.7592     2.3061     0.7461 C.ar    
  26 C26            4.2491    -4.5497    -0.4956 C.3     
  27 C27            4.1008    -6.0723    -0.5177 C.3     
  28 C28            1.6350     4.6042    -1.1582 C.2     
  29 C29            1.0242     5.7903    -0.9323 C.2     
  30 O30           -0.1210     5.5172    -0.2919 O.3     
  31 N31           -0.2666     4.3298    -0.1170 N.2     
  32 C32           -7.3848    -1.9515     0.6007 C.3     
  33 C33            1.5331     7.1536    -1.3241 C.3     
  34 C34            0.6639     7.9878    -2.2673 C.3     
  35 C35            0.7754     8.3708    -0.7902 C.3     
  36 C36            5.4818    -6.7173    -0.6516 C.3     
  37 N37            5.3398    -8.1752    -0.6727 N.am    
  38 C38            5.1555    -8.9717    -1.8916 C.3     
  39 C39            4.6268   -10.3419    -1.4125 C.3     
  40 C40            5.1777   -10.4052     0.0310 C.3     
  41 C41            5.3675    -8.9559     0.4212 C.2     
  42 O42            5.5156    -8.5559     1.5565 O.2     
  43 H43           -0.7815     1.8012     0.4486 H       
  44 H44           -1.7867    -2.8113     0.0658 H       
  45 H45            0.4299    -3.8454    -0.1500 H       
  46 H46            2.2384     0.0459    -0.2231 H       
  47 H47           -2.6770    -0.3110    -1.8935 H       
  48 H48           -3.3178    -1.6757    -0.9465 H       
  49 H49           -3.0715    -1.6593     1.4890 H       
  50 H50           -2.2559    -0.2831     2.2703 H       
  51 H51           -4.7311    -0.1472     2.5197 H       
  52 H52           -4.0903     1.2174     1.5727 H       
  53 H53           -4.3366     1.2011    -0.8628 H       
  54 H54           -5.1521    -0.1752    -1.6441 H       
  55 H55            2.1347    -4.4892    -0.3118 H       
  56 H56           -5.6305     2.3569     0.5621 H       
  57 H57           -9.6442    -0.4920     0.8343 H       
  58 H58           -9.8608     1.9582     0.9199 H       
  59 H59           -7.8575     3.3809     0.7842 H       
  60 H60            4.7173    -4.2167    -1.4219 H       
  61 H61            4.8703    -4.2573     0.3510 H       
  62 H62            3.6326    -6.4053     0.4086 H       
  63 H63            3.4797    -6.3647    -1.3643 H       
  64 H64            2.5793     4.4251    -1.6508 H       
  65 H65           -7.2658    -2.3421     1.6113 H       
  66 H66           -8.2802    -2.3787     0.1492 H       
  67 H67           -6.5135    -2.2188     0.0029 H       
  68 H68            2.6147     7.2395    -1.4284 H       
  69 H69            1.1737     8.6230    -2.9917 H       
  70 H70           -0.2760     7.5506    -2.6043 H       
  71 H71           -0.0912     8.1855    -0.1554 H       
  72 H72            1.3585     9.2579    -0.5428 H       
  73 H73            5.9500    -6.3844    -1.5779 H       
  74 H74            6.1030    -6.4249     0.1950 H       
  75 H75            4.4271    -8.4947    -2.5473 H       
  76 H76            6.1067    -9.0945    -2.4094 H       
  77 H77            3.5370   -10.3622    -1.4154 H       
  78 H78            5.0322   -11.1507    -2.0205 H       
  79 H79            4.4598   -10.8903     0.6923 H       
  80 H80            6.1327   -10.9302     0.0522 H       
@<TRIPOS>BOND
   1    1    2 1
   2    1   16 am
   3    1   43 1
   4    2    3 ar
   5    2    7 ar
   6    3    4 ar
   7    3    8 1
   8    4    5 ar
   9    4   44 1
  10    5    6 ar
  11    5   45 1
  12    6    7 ar
  13    6   14 1
  14    7   46 1
  15    8    9 1
  16    8   10 1
  17    9   13 1
  18    9   47 1
  19    9   48 1
  20   10   11 1
  21   10   49 1
  22   10   50 1
  23   11   12 1
  24   11   51 1
  25   11   52 1
  26   12   13 1
  27   12   20 1
  28   13   53 1
  29   13   54 1
  30   14   15 2
  31   14   19 am
  32   16   18 2
  33   16   17 1
  34   17   28 1
  35   17   31 2
  36   19   26 1
  37   19   55 1
  38   20   21 ar
  39   20   22 ar
  40   21   25 ar
  41   21   56 1
  42   22   23 ar
  43   22   32 1
  44   23   24 ar
  45   23   57 1
  46   24   25 ar
  47   24   58 1
  48   25   59 1
  49   26   27 1
  50   26   60 1
  51   26   61 1
  52   27   36 1
  53   27   62 1
  54   27   63 1
  55   28   29 2
  56   28   64 1
  57   29   30 1
  58   29   33 1
  59   30   31 1
  60   32   65 1
  61   32   66 1
  62   32   67 1
  63   33   34 1
  64   33   35 1
  65   33   68 1
  66   34   35 1
  67   34   69 1
  68   34   70 1
  69   35   71 1
  70   35   72 1
  71   36   37 1
  72   36   73 1
  73   36   74 1
  74   37   38 1
  75   37   41 am
  76   38   39 1
  77   38   75 1
  78   38   76 1
  79   39   40 1
  80   39   77 1
  81   39   78 1
  82   40   41 1
  83   40   79 1
  84   40   80 1
  85   41   42 2

#	End of record

