#	Name: ASD01901310
#	Creating user name:	WinNT
#	Creation time:	15. 06. 2019 19:53

#	Modifying user name:	WinNT
#	Modification time:	15. 06. 2019 19:53

#	Program:	/corina/corina34_cracker 3.40 0067  02.08.2006

@<TRIPOS>MOLECULE
ASD01901310
  41   44    0    0    0
SMALL
NO_CHARGES


@<TRIPOS>ATOM
   1 C1            -0.0166     1.3758     0.0096 C.ar    
   2 C2             0.0021    -0.0041     0.0020 C.ar    
   3 C3             1.2080    -0.6819    -0.0127 C.ar    
   4 C4             2.4006     0.0182    -0.0203 C.ar    
   5 C5             2.3935     1.3986    -0.0128 C.ar    
   6 C6             1.1821     2.0863     0.0020 C.ar    
   7 C7             1.1682     3.5704     0.0101 C.2     
   8 N8             0.8520     5.5874     1.1958 N.2     
   9 C9             0.8635     4.2770     1.1938 C.2     
  10 C10            1.4557     4.2724    -1.1269 C.2     
  11 C11            1.1277     6.2844     0.0831 C.2     
  12 N12            1.1780     7.5878    -0.1521 N.2     
  13 N13            1.4340     5.6348    -1.0850 N.pl3   
  14 C14            1.6705     6.5950    -2.0316 C.2     
  15 C15            1.5061     7.7929    -1.4312 C.2     
  16 C16            1.6653     9.1372    -2.0933 C.3     
  17 O17            2.0201     8.9535    -3.4653 O.3     
  18 C18            2.2027    10.0750    -4.2109 C.ar    
  19 C19            2.0491    11.3266    -3.6324 C.ar    
  20 C20            2.5485     9.9702    -5.5503 C.ar    
  21 C21            2.7335    11.1117    -6.3060 C.ar    
  22 C22            2.5747    12.3579    -5.7285 C.ar    
  23 C23            2.2352    12.4650    -4.3924 C.ar    
  24 C24           -1.3310     2.1128     0.0198 C.3     
  25 H25           -0.9264    -0.5558     0.0079 H       
  26 H26            1.2181    -1.7619    -0.0179 H       
  27 H27            3.3392    -0.5159    -0.0318 H       
  28 H28            3.3254     1.9445    -0.0181 H       
  29 H29            0.6386     3.7355     2.1009 H       
  30 H30            1.6967     3.7557    -2.0442 H       
  31 H31            1.9383     6.4261    -3.0642 H       
  32 H32            0.7257     9.6863    -2.0314 H       
  33 H33            2.4494     9.7008    -1.5875 H       
  34 H34            1.7840    11.4108    -2.5888 H       
  35 H35            2.6733     8.9971    -6.0017 H       
  36 H36            3.0027    11.0307    -7.3488 H       
  37 H37            2.7201    13.2491    -6.3209 H       
  38 H38            2.1158    13.4396    -3.9425 H       
  39 H39           -1.6431     2.2850     1.0499 H       
  40 H40           -1.2151     3.0696    -0.4894 H       
  41 H41           -2.0857     1.5171    -0.4937 H       
@<TRIPOS>BOND
   1    1    2 ar
   2    1    6 ar
   3    1   24 1
   4    2    3 ar
   5    2   25 1
   6    3    4 ar
   7    3   26 1
   8    4    5 ar
   9    4   27 1
  10    5    6 ar
  11    5   28 1
  12    6    7 1
  13    7   10 2
  14    7    9 1
  15    8    9 2
  16    8   11 1
  17    9   29 1
  18   10   13 1
  19   10   30 1
  20   11   13 1
  21   11   12 2
  22   12   15 1
  23   13   14 1
  24   14   15 2
  25   14   31 1
  26   15   16 1
  27   16   17 1
  28   16   32 1
  29   16   33 1
  30   17   18 1
  31   18   20 ar
  32   18   19 ar
  33   19   23 ar
  34   19   34 1
  35   20   21 ar
  36   20   35 1
  37   21   22 ar
  38   21   36 1
  39   22   23 ar
  40   22   37 1
  41   23   38 1
  42   24   39 1
  43   24   40 1
  44   24   41 1

#	End of record

