#	Name: ASD04230013
#	Creating user name:	WinNT
#	Creation time:	15. 06. 2019 20:48

#	Modifying user name:	WinNT
#	Modification time:	15. 06. 2019 20:48

#	Program:	/corina/corina34_cracker 3.40 0067  02.08.2006

@<TRIPOS>MOLECULE
ASD04230013
  45   49    0    0    0
SMALL
NO_CHARGES


@<TRIPOS>ATOM
   1 C1             1.4931     4.6796     1.7090 C.ar    
   2 C2             2.4897     5.3985     2.3639 C.ar    
   3 C3             3.7657     4.8832     2.4670 C.ar    
   4 C4             4.0579     3.6353     1.8995 C.ar    
   5 C5             3.0375     2.8995     1.2676 C.ar    
   6 C6             1.7626     3.4403     1.1680 C.ar    
   7 C7             5.3735     3.1070     1.9618 C.2     
   8 C8             5.6537     1.9698     1.2156 C.2     
   9 C9             4.5632     1.4190     0.3904 C.2     
  10 O10            3.2916     1.6614     0.7793 O.3     
  11 C11            6.9845     1.3407     1.2469 C.2     
  12 N12            7.2258     0.2374     0.5114 N.am    
  13 O13            7.8661     1.8167     1.9365 O.2     
  14 C14            8.5178    -0.2950     0.4523 C.ar    
  15 C15            8.6998    -1.6700     0.3705 C.ar    
  16 C16            9.9751    -2.1996     0.3115 C.ar    
  17 C17           11.0750    -1.3656     0.3340 C.ar    
  18 C18           10.9018     0.0151     0.4159 C.ar    
  19 C19            9.6177     0.5499     0.4697 C.ar    
  20 C20           12.0832     0.9130     0.4402 C.2     
  21 O21            4.8004     0.7669    -0.6091 O.2     
  22 O22            2.2046     6.6134     2.9035 O.3     
  23 C23           13.3814     0.5275     0.2929 C.2     
  24 N24           14.1474     1.6561     0.3779 N.pl3   
  25 C25           13.2946     2.7116     0.5765 C.2     
  26 N26           12.0552     2.2449     0.6054 N.2     
  27 C27           15.4952     1.8613     0.3024 C.2     
  28 C28           16.0094     3.1032     0.4216 C.2     
  29 C29           15.1618     4.2047     0.6256 C.2     
  30 C30           13.8171     4.0154     0.7018 C.2     
  31 H31            0.4992     5.0943     1.6281 H       
  32 H32            4.5354     5.4388     2.9820 H       
  33 H33            0.9809     2.8895     0.6660 H       
  34 H34            6.1332     3.5749     2.5702 H       
  35 H35            6.5034    -0.1875     0.0230 H       
  36 H36            7.8426    -2.3268     0.3533 H       
  37 H37           10.1116    -3.2690     0.2479 H       
  38 H38           12.0700    -1.7831     0.2884 H       
  39 H39            9.4784     1.6190     0.5332 H       
  40 H40            1.9028     6.5750     3.8214 H       
  41 H41           13.7380    -0.4801     0.1384 H       
  42 H42           16.1561     1.0215     0.1462 H       
  43 H43           17.0774     3.2509     0.3603 H       
  44 H44           15.5760     5.1976     0.7207 H       
  45 H45           13.1561     4.8551     0.8580 H       
@<TRIPOS>BOND
   1    1    2 ar
   2    1    6 ar
   3    1   31 1
   4    2    3 ar
   5    2   22 1
   6    3    4 ar
   7    3   32 1
   8    4    5 ar
   9    4    7 1
  10    5    6 ar
  11    5   10 1
  12    6   33 1
  13    7    8 2
  14    7   34 1
  15    8    9 1
  16    8   11 1
  17    9   10 1
  18    9   21 2
  19   11   12 am
  20   11   13 2
  21   12   14 1
  22   12   35 1
  23   14   15 ar
  24   14   19 ar
  25   15   16 ar
  26   15   36 1
  27   16   17 ar
  28   16   37 1
  29   17   18 ar
  30   17   38 1
  31   18   19 ar
  32   18   20 1
  33   19   39 1
  34   20   23 2
  35   20   26 1
  36   22   40 1
  37   23   24 1
  38   23   41 1
  39   24   25 1
  40   24   27 1
  41   25   26 2
  42   25   30 1
  43   27   28 2
  44   27   42 1
  45   28   29 1
  46   28   43 1
  47   29   30 2
  48   29   44 1
  49   30   45 1

#	End of record

