#	Name: ASD00100066
#	Creating user name:	WinNT
#	Creation time:	15. 06. 2019 18:30

#	Modifying user name:	WinNT
#	Modification time:	15. 06. 2019 18:30

#	Program:	/corina/corina34_cracker 3.40 0067  02.08.2006

@<TRIPOS>MOLECULE
ASD00100066
  81   86    0    0    0
SMALL
NO_CHARGES


@<TRIPOS>ATOM
   1 C1            -0.0180     1.4710     0.0101 C.2     
   2 C2             0.0020    -0.0041     0.0020 C.ar    
   3 C3             1.1896    -0.6869    -0.2763 C.ar    
   4 C4             1.2051    -2.0629    -0.2827 C.ar    
   5 C5             0.0397    -2.7749    -0.0127 C.ar    
   6 C6            -1.1448    -2.0978     0.2644 C.ar    
   7 C7            -1.1653    -0.7219     0.2784 C.ar    
   8 O8             0.9992     2.0941    -0.2255 O.2     
   9 N9            -1.1651     2.1279     0.2732 N.am    
  10 N10            0.0585    -4.1653    -0.0203 N.3     
  11 C11            1.3103    -4.6763     0.5429 C.3     
  12 C12           -0.2047    -4.6864    -1.3637 C.3     
  13 C13           -1.1849     3.5928     0.2813 C.3     
  14 C14           -2.3309     4.0824     1.1690 C.3     
  15 C15           -2.3516     5.6122     1.1774 C.3     
  16 C16           -2.5554     6.1274    -0.2488 C.3     
  17 C17           -1.4094     5.6378    -1.1365 C.3     
  18 C18           -1.3887     4.1079    -1.1449 C.3     
  19 C19           -2.5761     7.6572    -0.2404 C.3     
  20 C20           -2.9037     8.1705    -1.6440 C.3     
  21 N21           -2.9236     9.6394    -1.6359 N.3     
  22 C22           -2.9987    10.1722    -3.0022 C.3     
  23 C23           -2.8710    11.6968    -2.9644 C.3     
  24 C24           -3.9992    12.2775    -2.1074 C.3     
  25 C25           -3.9276    11.6700    -0.7037 C.3     
  26 C26           -4.0247    10.1462    -0.8070 C.3     
  27 O27           -3.0132    15.7697    -1.6040 O.3     
  28 C28           -2.7978    14.4455    -1.5174 C.2     
  29 C29           -3.8439    13.7737    -2.0171 C.2     
  30 C30           -4.8082    14.7883    -2.4593 C.ar    
  31 C31           -4.2121    16.0263    -2.1651 C.ar    
  32 C32           -6.0683    14.7415    -3.0531 C.ar    
  33 C33           -6.7251    15.9157    -3.3493 C.ar    
  34 C34           -6.1372    17.1382    -3.0591 C.ar    
  35 C35           -4.8914    17.1982    -2.4720 C.ar    
  36 C36            1.1497    -6.1535     0.9153 C.3     
  37 S37            0.8044    -7.1011    -0.5975 S.o2    
  38 C38           -0.5961    -6.1651    -1.2818 C.3     
  39 O39            1.9120    -6.9729    -1.4783 O.2     
  40 O40            0.3505    -8.3966    -0.2299 O.2     
  41 H41            2.0939    -0.1351    -0.4865 H       
  42 H42            2.1223    -2.5910    -0.4977 H       
  43 H43           -2.0474    -2.6529     0.4727 H       
  44 H44           -2.0833    -0.1972     0.4982 H       
  45 H45           -1.9774     1.6309     0.4572 H       
  46 H46            2.1074    -4.5731    -0.1934 H       
  47 H47            1.5665    -4.1040     1.4344 H       
  48 H48           -1.0183    -4.1212    -1.8183 H       
  49 H49            0.6921    -4.5826    -1.9744 H       
  50 H50           -0.2382     3.9669     0.6709 H       
  51 H51           -3.2776     3.7083     0.7794 H       
  52 H52           -2.1857     3.7154     2.1850 H       
  53 H53           -3.1680     5.9611     1.8098 H       
  54 H54           -1.4048     5.9863     1.5670 H       
  55 H55           -3.5021     5.7533    -0.6384 H       
  56 H56           -1.5546     6.0047    -2.1525 H       
  57 H57           -0.4627     6.0118    -0.7469 H       
  58 H58           -0.5723     3.7591    -1.7773 H       
  59 H59           -2.3354     3.7338    -1.5345 H       
  60 H60           -3.3345     8.0064     0.4604 H       
  61 H61           -1.5992     8.0322     0.0648 H       
  62 H62           -2.1453     7.8213    -2.3447 H       
  63 H63           -3.8806     7.7956    -1.9492 H       
  64 H64           -2.1885     9.7546    -3.6000 H       
  65 H65           -3.9558     9.8988    -3.4465 H       
  66 H66           -1.9083    11.9707    -2.5329 H       
  67 H67           -2.9425    12.0932    -3.9773 H       
  68 H68           -4.9612    12.0368    -2.5598 H       
  69 H69           -2.9815    11.9435    -0.2366 H       
  70 H70           -4.7540    12.0473    -0.1013 H       
  71 H71           -4.9770     9.8730    -1.2616 H       
  72 H72           -3.9597     9.7097     0.1896 H       
  73 H73           -1.9100    13.9892    -1.1049 H       
  74 H74           -6.5270    13.7904    -3.2799 H       
  75 H75           -7.7015    15.8843    -3.8098 H       
  76 H76           -6.6609    18.0525    -3.2960 H       
  77 H77           -4.4439    18.1558    -2.2506 H       
  78 H78            2.0698    -6.5174     1.3727 H       
  79 H79            0.3213    -6.2664     1.6146 H       
  80 H80           -1.4640    -6.2782    -0.6321 H       
  81 H81           -0.8320    -6.5367    -2.2790 H       
@<TRIPOS>BOND
   1    1    2 1
   2    1    8 2
   3    1    9 am
   4    2    3 ar
   5    2    7 ar
   6    3    4 ar
   7    3   41 1
   8    4    5 ar
   9    4   42 1
  10    5    6 ar
  11    5   10 1
  12    6    7 ar
  13    6   43 1
  14    7   44 1
  15    9   13 1
  16    9   45 1
  17   10   11 1
  18   10   12 1
  19   11   36 1
  20   11   46 1
  21   11   47 1
  22   12   38 1
  23   12   48 1
  24   12   49 1
  25   13   14 1
  26   13   18 1
  27   13   50 1
  28   14   15 1
  29   14   51 1
  30   14   52 1
  31   15   16 1
  32   15   53 1
  33   15   54 1
  34   16   17 1
  35   16   19 1
  36   16   55 1
  37   17   18 1
  38   17   56 1
  39   17   57 1
  40   18   58 1
  41   18   59 1
  42   19   20 1
  43   19   60 1
  44   19   61 1
  45   20   21 1
  46   20   62 1
  47   20   63 1
  48   21   22 1
  49   21   26 1
  50   22   23 1
  51   22   64 1
  52   22   65 1
  53   23   24 1
  54   23   66 1
  55   23   67 1
  56   24   25 1
  57   24   29 1
  58   24   68 1
  59   25   26 1
  60   25   69 1
  61   25   70 1
  62   26   71 1
  63   26   72 1
  64   27   28 1
  65   27   31 1
  66   28   29 2
  67   28   73 1
  68   29   30 1
  69   30   31 ar
  70   30   32 ar
  71   31   35 ar
  72   32   33 ar
  73   32   74 1
  74   33   34 ar
  75   33   75 1
  76   34   35 ar
  77   34   76 1
  78   35   77 1
  79   36   37 1
  80   36   78 1
  81   36   79 1
  82   37   38 1
  83   37   39 2
  84   37   40 2
  85   38   80 1
  86   38   81 1

#	End of record

