#	Name: ASD02030196
#	Creating user name:	WinNT
#	Creation time:	15. 06. 2019 20:14

#	Modifying user name:	WinNT
#	Modification time:	15. 06. 2019 20:14

#	Program:	/corina/corina34_cracker 3.40 0067  02.08.2006

@<TRIPOS>MOLECULE
ASD02030196
  52   55    0    0    0
SMALL
NO_CHARGES


@<TRIPOS>ATOM
   1 N1            -0.2121     1.4224    -0.1395 N.am    
   2 C2            -0.0217    -0.0111     0.1222 C.3     
   3 C3            -0.9187    -0.4180     1.2979 C.3     
   4 N4            -2.2777     0.0817     1.0466 N.am    
   5 C5            -2.4681     1.5153     0.7848 C.3     
   6 C6            -1.5718     1.9231    -0.3853 C.3     
   7 C7             0.8407     2.2638    -0.1485 C.2     
   8 C8             2.1831     1.7721     0.2276 C.2     
   9 N9             3.2618     2.5093     0.3829 N.2     
  10 N10            2.5159     0.4924     0.4772 N.2     
  11 C11            3.7903     0.4728     0.7744 C.2     
  12 N12            4.2432     1.7416     0.7114 N.pl3   
  13 O13            0.6865     3.4271    -0.4659 O.2     
  14 C14           -3.3305    -0.7596     1.0556 C.2     
  15 C15           -4.7027    -0.2283     0.9115 C.ar    
  16 O16           -3.1520    -1.9553     1.1822 O.2     
  17 C17           -1.5453     3.4482    -0.5046 C.3     
  18 C18           -2.1094     1.3124    -1.6810 C.3     
  19 C19           -5.6738    -0.9695     0.2370 C.ar    
  20 C20           -6.9537    -0.4675     0.1065 C.ar    
  21 C21           -7.2734     0.7681     0.6432 C.ar    
  22 C22           -6.3144     1.5071     1.3129 C.ar    
  23 C23           -5.0338     1.0143     1.4546 C.ar    
  24 Cl24          -8.1637    -1.3870    -0.7326 Cl      
  25 C25            5.5593     2.1552     0.9606 C.ar    
  26 C26            5.8968     3.4979     0.8611 C.ar    
  27 C27            7.1962     3.9030     1.1076 C.ar    
  28 C28            8.1601     2.9703     1.4532 C.ar    
  29 C29            7.8270     1.6324     1.5526 C.ar    
  30 C30            6.5277     1.2221     1.3133 C.ar    
  31 F31            6.2028    -0.0856     1.4111 F       
  32 F32            7.5257     5.2096     1.0106 F       
  33 H33           -0.2967    -0.5844    -0.7632 H       
  34 H34            1.0214    -0.2015     0.3749 H       
  35 H35           -0.9385    -1.5044     1.3840 H       
  36 H36           -0.5334     0.0176     2.2198 H       
  37 H37           -3.5112     1.7057     0.5321 H       
  38 H38           -2.1931     2.0885     1.6702 H       
  39 H39            4.3730    -0.4007     1.0275 H       
  40 H40           -1.0494     3.8724     0.3684 H       
  41 H41           -1.0015     3.7327    -1.4054 H       
  42 H42           -2.5661     3.8260    -0.5619 H       
  43 H43           -3.1230     1.6719    -1.8589 H       
  44 H44           -1.4691     1.6044    -2.5134 H       
  45 H45           -2.1193     0.2260    -1.5939 H       
  46 H46           -5.4249    -1.9332    -0.1822 H       
  47 H47           -8.2755     1.1568     0.5384 H       
  48 H48           -6.5700     2.4703     1.7290 H       
  49 H49           -4.2865     1.5924     1.9780 H       
  50 H50            5.1457     4.2255     0.5913 H       
  51 H51            9.1740     3.2889     1.6452 H       
  52 H52            8.5807     0.9074     1.8220 H       
@<TRIPOS>BOND
   1    1    2 1
   2    1    7 am
   3    1    6 1
   4    2    3 1
   5    2   33 1
   6    2   34 1
   7    3    4 1
   8    3   35 1
   9    3   36 1
  10    4    5 1
  11    4   14 am
  12    5    6 1
  13    5   37 1
  14    5   38 1
  15    6   17 1
  16    6   18 1
  17    7    8 1
  18    7   13 2
  19    8    9 2
  20    8   10 1
  21    9   12 1
  22   10   11 2
  23   11   12 1
  24   11   39 1
  25   12   25 1
  26   14   15 1
  27   14   16 2
  28   15   19 ar
  29   15   23 ar
  30   17   40 1
  31   17   41 1
  32   17   42 1
  33   18   43 1
  34   18   44 1
  35   18   45 1
  36   19   20 ar
  37   19   46 1
  38   20   21 ar
  39   20   24 1
  40   21   22 ar
  41   21   47 1
  42   22   23 ar
  43   22   48 1
  44   23   49 1
  45   25   26 ar
  46   25   30 ar
  47   26   27 ar
  48   26   50 1
  49   27   28 ar
  50   27   32 1
  51   28   29 ar
  52   28   51 1
  53   29   30 ar
  54   29   52 1
  55   30   31 1

#	End of record

