#	Name: ASD04880201
#	Creating user name:	WinNT
#	Creation time:	15. 06. 2019 20:53

#	Modifying user name:	WinNT
#	Modification time:	15. 06. 2019 20:53

#	Program:	/corina/corina34_cracker 3.40 0067  02.08.2006

@<TRIPOS>MOLECULE
ASD04880201
  36   38    0    0    0
SMALL
NO_CHARGES


@<TRIPOS>ATOM
   1 C1            -0.0480     1.2601    -0.0330 C.2     
   2 O2             0.1159     0.0554    -0.0375 O.2     
   3 C3             1.1182     2.1647    -0.1096 C.ar    
   4 C4             2.4125     1.6482    -0.0271 C.ar    
   5 C5             3.4980     2.4998    -0.0995 C.ar    
   6 C6             3.3027     3.8633    -0.2535 C.ar    
   7 C7             2.0221     4.3793    -0.3352 C.ar    
   8 C8             0.9301     3.5385    -0.2705 C.ar    
   9 F9             4.7518     2.0028    -0.0195 F       
  10 N10           -1.2934     1.7705     0.0363 N.am    
  11 N11           -1.6095     3.1209     0.1710 N.2     
  12 C12           -2.8741     3.3637     0.2142 C.2     
  13 C13           -3.6417     2.0659     0.1016 C.3     
  14 C14           -2.5415     0.9934    -0.0243 C.3     
  15 C15           -3.2975     7.0695     0.6965 C.ar    
  16 C16           -2.6839     5.8311     0.5729 C.ar    
  17 C17           -3.4795     4.7010     0.3527 C.ar    
  18 C18           -4.8687     4.8757     0.2667 C.ar    
  19 C19           -5.3946     6.1414     0.4010 C.ar    
  20 N20           -4.6123     7.1850     0.6082 N.ar    
  21 O21           -2.5404     8.1743     0.9160 O.3     
  22 C22           -3.2299     9.4203     1.0342 C.3     
  23 Cl23          -0.9578     5.6860     0.6892 Cl      
  24 H24            2.5648     0.5858     0.0932 H       
  25 H25            4.1540     4.5256    -0.3096 H       
  26 H26            1.8767     5.4428    -0.4549 H       
  27 H27           -0.0689     3.9431    -0.3397 H       
  28 H28           -4.2429     1.8985     0.9952 H       
  29 H29           -4.2709     2.0699    -0.7885 H       
  30 H30           -2.6214     0.4696    -0.9769 H       
  31 H31           -2.5965     0.2905     0.8069 H       
  32 H32           -5.5172     4.0289     0.0971 H       
  33 H33           -6.4633     6.2828     0.3355 H       
  34 H34           -3.7797     9.6200     0.1145 H       
  35 H35           -3.9269     9.3719     1.8709 H       
  36 H36           -2.5092    10.2194     1.2075 H       
@<TRIPOS>BOND
   1    1    2 2
   2    1    3 1
   3    1   10 am
   4    3    4 ar
   5    3    8 ar
   6    4    5 ar
   7    4   24 1
   8    5    6 ar
   9    5    9 1
  10    6    7 ar
  11    6   25 1
  12    7    8 ar
  13    7   26 1
  14    8   27 1
  15   10   11 1
  16   10   14 1
  17   11   12 2
  18   12   13 1
  19   12   17 1
  20   13   14 1
  21   13   28 1
  22   13   29 1
  23   14   30 1
  24   14   31 1
  25   15   16 ar
  26   15   20 ar
  27   15   21 1
  28   16   17 ar
  29   16   23 1
  30   17   18 ar
  31   18   19 ar
  32   18   32 1
  33   19   20 ar
  34   19   33 1
  35   21   22 1
  36   22   34 1
  37   22   35 1
  38   22   36 1

#	End of record

