#	Name: ASD02270005
#	Creating user name:	WinNT
#	Creation time:	15. 06. 2019 20:20

#	Modifying user name:	WinNT
#	Modification time:	15. 06. 2019 20:20

#	Program:	/corina/corina34_cracker 3.40 0067  02.08.2006

@<TRIPOS>MOLECULE
ASD02270005
  57   60    0    0    0
SMALL
NO_CHARGES


@<TRIPOS>ATOM
   1 N1            -0.6180     1.5218    -0.7895 N.am    
   2 C2            -0.4501     0.1079    -0.4300 C.3     
   3 N3             0.9142    -0.0154     0.1345 N.3     
   4 C4             1.6448     1.0944    -0.5119 C.3     
   5 C5             0.5909     2.1186    -0.8537 C.2     
   6 O6             0.7951     3.2798    -1.1380 O.2     
   7 C7             2.6671     1.6845     0.4558 C.3     
   8 C8             3.4422     2.8029    -0.2466 C.3     
   9 N9             4.1036     2.2638    -1.4418 N.3     
  10 C10            3.1238     1.7529    -2.4090 C.3     
  11 C11            2.3379     0.5997    -1.7786 C.3     
  12 C12            4.9773     3.2704    -2.0593 C.3     
  13 C13            6.2588     3.4080    -1.2349 C.3     
  14 N14            6.9340     2.1099    -1.1616 N.am    
  15 C15            7.7665     1.8403    -0.1365 C.2     
  16 C16            8.4477     0.5307    -0.0625 C.ar    
  17 C17            9.3106     0.2485     0.9980 C.ar    
  18 C18            9.9429    -0.9754     1.0617 C.ar    
  19 C19            9.7233    -1.9235     0.0766 C.ar    
  20 C20            8.8689    -1.6493    -0.9781 C.ar    
  21 C21            8.2263    -0.4311    -1.0498 C.ar    
  22 O22            7.9571     2.6742     0.7272 O.2     
  23 C23            1.4827    -1.2479    -0.1949 C.ar    
  24 C24            2.3039    -1.9010     0.7155 C.ar    
  25 C25            2.8648    -3.1201     0.3880 C.ar    
  26 C26            2.6107    -3.6914    -0.8447 C.ar    
  27 C27            1.7923    -3.0436    -1.7558 C.ar    
  28 C28            1.2234    -1.8256    -1.4311 C.ar    
  29 F29            1.5458    -3.6045    -2.9599 F       
  30 Br30          10.5943    -3.5993     0.1716 Br      
  31 C31            7.1856     4.4281    -1.8993 C.3     
  32 H32           -1.4673     1.9588    -0.9589 H       
  33 H33           -1.1916    -0.1800     0.3153 H       
  34 H34           -0.5468    -0.5184    -1.3170 H       
  35 H35            2.1519     2.0902     1.3265 H       
  36 H36            3.3601     0.9052     0.7728 H       
  37 H37            2.7525     3.5948    -0.5389 H       
  38 H38            4.1926     3.2071     0.4329 H       
  39 H39            2.4365     2.5521    -2.6865 H       
  40 H40            3.6433     1.3954    -3.2980 H       
  41 H41            3.0211    -0.2112    -1.5265 H       
  42 H42            1.5903     0.2398    -2.4854 H       
  43 H43            5.2291     2.9601    -3.0733 H       
  44 H44            4.4607     4.2297    -2.0906 H       
  45 H45            6.0093     3.7451    -0.2288 H       
  46 H46            6.7819     1.4445    -1.8508 H       
  47 H47            9.4828     0.9873     1.7667 H       
  48 H48           10.6109    -1.1948     1.8815 H       
  49 H49            8.7022    -2.3924    -1.7438 H       
  50 H50            7.5602    -0.2184    -1.8729 H       
  51 H51            2.5039    -1.4556     1.6788 H       
  52 H52            3.5032    -3.6276     1.0961 H       
  53 H53            3.0512    -4.6443    -1.0983 H       
  54 H54            0.5855    -1.3202    -2.1410 H       
  55 H55            8.0986     4.5261    -1.3121 H       
  56 H56            7.4351     4.0910    -2.9054 H       
  57 H57            6.6832     5.3939    -1.9539 H       
@<TRIPOS>BOND
   1    1    2 1
   2    1    5 am
   3    1   32 1
   4    2    3 1
   5    2   33 1
   6    2   34 1
   7    3    4 1
   8    3   23 1
   9    4    5 1
  10    4    7 1
  11    4   11 1
  12    5    6 2
  13    7    8 1
  14    7   35 1
  15    7   36 1
  16    8    9 1
  17    8   37 1
  18    8   38 1
  19    9   10 1
  20    9   12 1
  21   10   11 1
  22   10   39 1
  23   10   40 1
  24   11   41 1
  25   11   42 1
  26   12   13 1
  27   12   43 1
  28   12   44 1
  29   13   31 1
  30   13   14 1
  31   13   45 1
  32   14   15 am
  33   14   46 1
  34   15   16 1
  35   15   22 2
  36   16   17 ar
  37   16   21 ar
  38   17   18 ar
  39   17   47 1
  40   18   19 ar
  41   18   48 1
  42   19   20 ar
  43   19   30 1
  44   20   21 ar
  45   20   49 1
  46   21   50 1
  47   23   24 ar
  48   23   28 ar
  49   24   25 ar
  50   24   51 1
  51   25   26 ar
  52   25   52 1
  53   26   27 ar
  54   26   53 1
  55   27   28 ar
  56   27   29 1
  57   28   54 1
  58   31   55 1
  59   31   56 1
  60   31   57 1

#	End of record

