#	Name: ASD03331570
#	Creating user name:	WinNT
#	Creation time:	15. 06. 2019 20:39

#	Modifying user name:	WinNT
#	Modification time:	15. 06. 2019 20:39

#	Program:	/corina/corina34_cracker 3.40 0067  02.08.2006

@<TRIPOS>MOLECULE
ASD03331570
  57   59    0    0    0
SMALL
NO_CHARGES


@<TRIPOS>ATOM
   1 C1             0.9788     1.3921     1.6912 C.2     
   2 C2            -0.3116     1.6894     1.7236 C.2     
   3 C3             2.0377     2.3102     1.2385 C.2     
   4 N4             3.3540     1.9871     1.0702 N.pl3   
   5 C5             3.9984     3.1170     0.6671 C.2     
   6 C6             3.0644     4.1011     0.5682 C.2     
   7 N7             1.8723     3.5753     0.9239 N.2     
   8 C8             3.3087     5.4912     0.1441 C.2     
   9 O9             4.4322     5.8464    -0.1572 O.2     
  10 N10            2.2873     6.3687     0.0903 N.am    
  11 C11            2.5302     7.7506    -0.3313 C.3     
  12 C12            1.4670     8.6471     0.2492 C.2     
  13 C13            3.9720     0.6725     1.2597 C.3     
  14 C14            5.4489     0.8539     1.6190 C.3     
  15 O15            6.2339     0.9269     0.4275 O.3     
  16 C16            5.9172     2.0182    -0.4322 C.3     
  17 C17            5.4787     3.2202     0.4109 C.3     
  18 C18           -1.1182     0.5211     2.2412 C.3     
  19 C19           -0.0836    -0.4026     2.9238 C.3     
  20 C20            1.2175    -0.0150     2.1878 C.3     
  21 C21            2.4885     7.8327    -1.8585 C.3     
  22 C22            1.1174     7.3715    -2.3568 C.3     
  23 C23            2.7313     9.2778    -2.2984 C.3     
  24 C24            3.5750     6.9309    -2.4476 C.3     
  25 O25            0.4199     8.1737     0.6369 O.2     
  26 N26            1.6799     9.9751     0.3375 N.am    
  27 C27            0.6874    10.8344     0.9877 C.3     
  28 H28           -0.7303     2.6381     1.4216 H       
  29 H29            1.3912     6.0854     0.3306 H       
  30 H30            3.5096     8.0718     0.0232 H       
  31 H31            3.4636     0.1445     2.0664 H       
  32 H32            3.8899     0.0958     0.3384 H       
  33 H33            5.5721     1.7737     2.1907 H       
  34 H34            5.7816     0.0080     2.2205 H       
  35 H35            6.7964     2.2864    -1.0180 H       
  36 H36            5.1077     1.7297    -1.1026 H       
  37 H37            5.6929     4.1427    -0.1287 H       
  38 H38            6.0151     3.2162     1.3598 H       
  39 H39           -1.8582     0.8622     2.9652 H       
  40 H40           -1.6051     0.0010     1.4162 H       
  41 H41           -0.0062    -0.1823     3.9885 H       
  42 H42           -0.3295    -1.4519     2.7606 H       
  43 H43            1.3907    -0.6847     1.3455 H       
  44 H44            2.0637    -0.0407     2.8744 H       
  45 H45            0.3433     8.0140    -1.9371 H       
  46 H46            1.0877     7.4300    -3.4448 H       
  47 H47            0.9444     6.3419    -2.0434 H       
  48 H48            3.7067     9.6075    -1.9406 H       
  49 H49            2.7049     9.3357    -3.3865 H       
  50 H50            1.9554     9.9198    -1.8814 H       
  51 H51            3.4020     5.9013    -2.1342 H       
  52 H52            3.5453     6.9894    -3.5356 H       
  53 H53            4.5518     7.2594    -2.0926 H       
  54 H54            2.4902    10.3618    -0.0295 H       
  55 H55           -0.2634    10.7545     0.4606 H       
  56 H56            0.5565    10.5192     2.0229 H       
  57 H57            1.0306    11.8686     0.9634 H       
@<TRIPOS>BOND
   1    1    2 2
   2    1    3 1
   3    1   20 1
   4    2   18 1
   5    2   28 1
   6    3    4 1
   7    3    7 2
   8    4    5 1
   9    4   13 1
  10    5    6 2
  11    5   17 1
  12    6    7 1
  13    6    8 1
  14    8    9 2
  15    8   10 am
  16   10   11 1
  17   10   29 1
  18   11   12 1
  19   11   21 1
  20   11   30 1
  21   12   25 2
  22   12   26 am
  23   13   14 1
  24   13   31 1
  25   13   32 1
  26   14   15 1
  27   14   33 1
  28   14   34 1
  29   15   16 1
  30   16   17 1
  31   16   35 1
  32   16   36 1
  33   17   37 1
  34   17   38 1
  35   18   19 1
  36   18   39 1
  37   18   40 1
  38   19   20 1
  39   19   41 1
  40   19   42 1
  41   20   43 1
  42   20   44 1
  43   21   22 1
  44   21   23 1
  45   21   24 1
  46   22   45 1
  47   22   46 1
  48   22   47 1
  49   23   48 1
  50   23   49 1
  51   23   50 1
  52   24   51 1
  53   24   52 1
  54   24   53 1
  55   26   27 1
  56   26   54 1
  57   27   55 1
  58   27   56 1
  59   27   57 1

#	End of record

