#	Name: ASD02030799
#	Creating user name:	WinNT
#	Creation time:	15. 06. 2019 20:16

#	Modifying user name:	WinNT
#	Modification time:	15. 06. 2019 20:16

#	Program:	/corina/corina34_cracker 3.40 0067  02.08.2006

@<TRIPOS>MOLECULE
ASD02030799
  83   86    0    0    0
SMALL
NO_CHARGES


@<TRIPOS>ATOM
   1 H1            -0.3727     0.5735    -0.8853 H       
   2 C2            -0.1858     1.6471    -0.9088 C.3     
   3 C3            -0.3835     2.1951    -2.3441 C.3     
   4 C4             1.0056     2.7088    -2.8119 C.3     
   5 C5             1.9789     1.9030    -1.9448 C.3     
   6 H6             2.0532     0.8785    -2.3095 H       
   7 C7             3.3559     2.5115    -1.7539 C.3     
   8 H8             3.2677     3.5087    -1.3226 H       
   9 C9             4.0990     2.5652    -3.0916 C.3     
  10 C10            5.4855     3.1628    -2.8607 C.3     
  11 C11            6.2854     2.2910    -1.8867 C.3     
  12 H12            6.4356     1.3035    -2.3230 H       
  13 C13            7.6436     2.9623    -1.6694 C.3     
  14 C14            8.2018     2.6268    -0.2921 C.3     
  15 O15            7.7047     3.5662     0.6632 O.3     
  16 C16            7.7750     1.2183     0.1126 C.3     
  17 C17            6.2733     1.1837     0.3665 C.3     
  18 C18            5.5392     2.1535    -0.5632 C.3     
  19 C19            5.4350     3.5241     0.1086 C.3     
  20 C20            4.1337     1.5928    -0.8026 C.3     
  21 H21            4.2242     0.6091    -1.2633 H       
  22 C22            3.4127     1.4219     0.5305 C.3     
  23 C23            1.9695     0.9303     0.3289 C.3     
  24 C24            1.2710     1.9376    -0.5633 C.3     
  25 C25            1.3896     3.3369     0.0440 C.3     
  26 C26            9.7295     2.7015    -0.3309 C.3     
  27 F27           10.1241     3.9940    -0.6927 F       
  28 F28           10.2436     2.3937     0.9333 F       
  29 F29           10.2175     1.7852    -1.2686 F       
  30 C30           -1.1164     2.3678     0.0688 C.3     
  31 H31           -0.8730     3.4301     0.0859 H       
  32 C32           -0.9371     1.7809     1.4703 C.3     
  33 C33           -2.5677     2.1842    -0.3792 C.3     
  34 C34           -3.4884     3.0065     0.5248 C.3     
  35 C35           -4.9398     2.8229     0.0768 C.3     
  36 H36           -5.1831     1.7605     0.0597 H       
  37 O37           -5.1072     3.3710    -1.2322 O.3     
  38 C38           -5.8703     3.5436     1.0544 C.3     
  39 C39           -5.5287     5.0348     1.0784 C.3     
  40 C40           -7.3217     3.3600     0.6064 C.3     
  41 C41           -5.6910     2.9567     2.4559 C.3     
  42 H42           -0.7299     1.3996    -3.0039 H       
  43 H43           -1.1022     3.0146    -2.3361 H       
  44 H44            1.1609     2.4925    -3.8689 H       
  45 H45            1.1080     3.7763    -2.6165 H       
  46 H46            4.1981     1.5575    -3.4952 H       
  47 H47            3.5445     3.1888    -3.7928 H       
  48 H48            6.0159     3.2218    -3.8111 H       
  49 H49            5.3817     4.1654    -2.4457 H       
  50 H50            8.3406     2.6160    -2.4325 H       
  51 H51            7.5272     4.0426    -1.7554 H       
  52 H52            8.0192     3.4140     1.5648 H       
  53 H53            8.0231     0.5210    -0.6876 H       
  54 H54            8.3025     0.9272     1.0210 H       
  55 H55            5.9040     0.1729     0.1936 H       
  56 H56            6.0785     1.4633     1.4018 H       
  57 H57            4.4910     3.9935    -0.1681 H       
  58 H58            5.4768     3.4024     1.1910 H       
  59 H59            6.2630     4.1530    -0.2185 H       
  60 H60            3.9545     0.6975     1.1386 H       
  61 H61            3.3938     2.3794     1.0510 H       
  62 H62            1.9747    -0.0487    -0.1503 H       
  63 H63            1.4602     0.8708     1.2907 H       
  64 H64            0.8802     3.3592     1.0074 H       
  65 H65            2.4420     3.5844     0.1836 H       
  66 H66            0.9313     4.0640    -0.6263 H       
  67 H67            0.0724     1.9889     1.8250 H       
  68 H68           -1.6608     2.2327     2.1487 H       
  69 H69           -1.0951     0.7030     1.4358 H       
  70 H70           -2.6752     2.5213    -1.4102 H       
  71 H71           -2.8384     1.1305    -0.3113 H       
  72 H72           -3.3810     2.6694     1.5558 H       
  73 H73           -3.2177     4.0602     0.4569 H       
  74 H74           -4.9075     4.3153    -1.2917 H       
  75 H75           -5.6564     5.4529     0.0799 H       
  76 H76           -6.1916     5.5482     1.7748 H       
  77 H77           -4.4947     5.1656     1.3975 H       
  78 H78           -7.5650     2.2976     0.5893 H       
  79 H79           -7.9846     3.8734     1.3029 H       
  80 H80           -7.4494     3.7781    -0.3921 H       
  81 H81           -4.6570     3.0875     2.7751 H       
  82 H82           -6.3539     3.4701     3.1524 H       
  83 H83           -5.9344     1.8943     2.4388 H       
@<TRIPOS>BOND
   1    1    2 1
   2    2   24 1
   3    2    3 1
   4    2   30 1
   5    3    4 1
   6    3   42 1
   7    3   43 1
   8    4    5 1
   9    4   44 1
  10    4   45 1
  11    5   24 1
  12    5    6 1
  13    5    7 1
  14    7   20 1
  15    7    8 1
  16    7    9 1
  17    9   10 1
  18    9   46 1
  19    9   47 1
  20   10   11 1
  21   10   48 1
  22   10   49 1
  23   11   18 1
  24   11   12 1
  25   11   13 1
  26   13   14 1
  27   13   50 1
  28   13   51 1
  29   14   15 1
  30   14   16 1
  31   14   26 1
  32   15   52 1
  33   16   17 1
  34   16   53 1
  35   16   54 1
  36   17   18 1
  37   17   55 1
  38   17   56 1
  39   18   19 1
  40   18   20 1
  41   19   57 1
  42   19   58 1
  43   19   59 1
  44   20   21 1
  45   20   22 1
  46   22   23 1
  47   22   60 1
  48   22   61 1
  49   23   24 1
  50   23   62 1
  51   23   63 1
  52   24   25 1
  53   25   64 1
  54   25   65 1
  55   25   66 1
  56   26   27 1
  57   26   28 1
  58   26   29 1
  59   30   31 1
  60   30   32 1
  61   30   33 1
  62   32   67 1
  63   32   68 1
  64   32   69 1
  65   33   34 1
  66   33   70 1
  67   33   71 1
  68   34   35 1
  69   34   72 1
  70   34   73 1
  71   35   36 1
  72   35   37 1
  73   35   38 1
  74   37   74 1
  75   38   39 1
  76   38   40 1
  77   38   41 1
  78   39   75 1
  79   39   76 1
  80   39   77 1
  81   40   78 1
  82   40   79 1
  83   40   80 1
  84   41   81 1
  85   41   82 1
  86   41   83 1

#	End of record

