#	Name: ASD01150573
#	Creating user name:	WinNT
#	Creation time:	15. 06. 2019 19:04

#	Modifying user name:	WinNT
#	Modification time:	15. 06. 2019 19:04

#	Program:	/corina/corina34_cracker 3.40 0067  02.08.2006

@<TRIPOS>MOLECULE
ASD01150573
  49   51    0    0    0
SMALL
NO_CHARGES


@<TRIPOS>ATOM
   1 C1             0.4933     1.3919    -0.9465 C.ar    
   2 C2             0.4639     0.0109    -0.9224 C.ar    
   3 C3             1.9479     0.0102     0.9677 C.ar    
   4 C4             1.9789     1.3967     0.9445 C.ar    
   5 C5             1.2508     2.0887    -0.0133 C.ar    
   6 N6             1.2801     3.4880    -0.0393 N.am    
   7 C7             0.1263     4.1736    -0.1218 C.2     
   8 N8             0.1176     5.5193    -0.1491 N.am    
   9 C9             1.2789     6.2039    -0.0932 C.2     
  10 C10            2.5442     5.4601    -0.0029 C.2     
  11 N11            2.5098     4.1538     0.0268 N.2     
  12 O12            1.2792     7.4207    -0.1178 O.2     
  13 C13           -1.1539     6.2413    -0.2399 C.3     
  14 O14           -0.9269     3.5676    -0.1732 O.2     
  15 C15           -1.6752     6.5169     1.1470 C.ar    
  16 O16            3.7300     6.1204     0.0549 O.3     
  17 C17            4.9129     5.3233     0.1414 C.3     
  18 C18            1.1883    -0.6824     0.0308 C.ar    
  19 C19           -1.5915     7.7904     1.6755 C.ar    
  20 C20           -2.0718     8.0439     2.9520 C.ar    
  21 C21           -2.6356     7.0181     3.6958 C.ar    
  22 C22           -2.7182     5.7452     3.1646 C.ar    
  23 C23           -2.2432     5.4948     1.8887 C.ar    
  24 N24            2.6816    -0.6914     1.9324 N.am    
  25 C25            2.9446    -0.1216     3.1251 C.2     
  26 C26            3.6402    -0.9140     4.2018 C.3     
  27 O27            2.6215     1.0291     3.3319 O.2     
  28 F28            1.1575    -2.0329     0.0519 F       
  29 F29           -2.3249     4.2498     1.3704 F       
  30 O30           -1.9896     9.2966     3.4735 O.3     
  31 C31           -2.5042     9.4850     4.7933 C.3     
  32 H32           -0.0696     1.9303    -1.6945 H       
  33 H33           -0.1260    -0.5285    -1.6487 H       
  34 H34            2.5683     1.9368     1.6707 H       
  35 H35           -0.9997     7.1844    -0.7642 H       
  36 H36           -1.8772     5.6359    -0.7862 H       
  37 H37            5.7870     5.9734     0.1808 H       
  38 H38            4.8739     4.7119     1.0430 H       
  39 H39            4.9801     4.6767    -0.7335 H       
  40 H40           -1.1518     8.5882     1.0953 H       
  41 H41           -3.0097     7.2140     4.6898 H       
  42 H42           -3.1572     4.9461     3.7436 H       
  43 H43            3.0005    -1.5875     1.7421 H       
  44 H44            3.8502    -1.9188     3.8351 H       
  45 H45            4.5754    -0.4218     4.4685 H       
  46 H46            2.9981    -0.9747     5.0805 H       
  47 H47           -3.5637     9.2297     4.8100 H       
  48 H48           -1.9646     8.8422     5.4888 H       
  49 H49           -2.3767    10.5267     5.0877 H       
@<TRIPOS>BOND
   1    1    2 ar
   2    1    5 ar
   3    1   32 1
   4    2   18 ar
   5    2   33 1
   6    3    4 ar
   7    3   24 1
   8    3   18 ar
   9    4    5 ar
  10    4   34 1
  11    5    6 1
  12    6    7 am
  13    6   11 1
  14    7    8 am
  15    7   14 2
  16    8    9 am
  17    8   13 1
  18    9   10 1
  19    9   12 2
  20   10   11 2
  21   10   16 1
  22   13   15 1
  23   13   35 1
  24   13   36 1
  25   15   19 ar
  26   15   23 ar
  27   16   17 1
  28   17   37 1
  29   17   38 1
  30   17   39 1
  31   18   28 1
  32   19   20 ar
  33   19   40 1
  34   20   21 ar
  35   20   30 1
  36   21   22 ar
  37   21   41 1
  38   22   23 ar
  39   22   42 1
  40   23   29 1
  41   24   25 am
  42   24   43 1
  43   25   26 1
  44   25   27 2
  45   26   44 1
  46   26   45 1
  47   26   46 1
  48   30   31 1
  49   31   47 1
  50   31   48 1
  51   31   49 1

#	End of record

