#	Name: ASD02038826
#	Creating user name:	WinNT
#	Creation time:	15. 06. 2019 20:17

#	Modifying user name:	WinNT
#	Modification time:	15. 06. 2019 20:17

#	Program:	/corina/corina34_cracker 3.40 0067  02.08.2006

@<TRIPOS>MOLECULE
ASD02038826
  52   55    0    0    0
SMALL
NO_CHARGES


@<TRIPOS>ATOM
   1 C1            -1.2823    -0.8512     0.4656 C.2     
   2 C2            -0.0606    -0.0343     0.3017 C.2     
   3 N3             1.1368    -0.6350     0.1536 N.am    
   4 C4             1.2418    -2.0930     0.2501 C.3     
   5 C5             1.2139    -2.6913    -1.1327 C.ar    
   6 C6             2.3333     0.1702    -0.1039 C.3     
   7 O7            -0.1363     1.1789     0.3005 O.2     
   8 N8            -1.3378    -2.1952     0.4970 N.2     
   9 C9            -2.5932    -2.5285     0.6567 C.2     
  10 N10           -3.3112    -1.3921     0.7238 N.pl3   
  11 N11           -2.5060    -0.3925     0.6123 N.2     
  12 C12            2.3968    -3.0122    -1.7680 C.ar    
  13 C13            2.1214     1.0142    -1.3645 C.3     
  14 C14            3.3442     1.9096    -1.5812 C.3     
  15 O15            3.5438     2.7284    -0.4271 O.3     
  16 C16            3.7939     1.9942     0.7731 C.3     
  17 C17            2.5892     1.1023     1.0844 C.3     
  18 C18            0.0031    -2.9228    -1.7598 C.ar    
  19 C19           -0.0312    -3.4715    -3.0288 C.ar    
  20 C20            1.1467    -3.7918    -3.6775 C.ar    
  21 C21            2.3707    -3.5652    -3.0462 C.ar    
  22 C22            3.6391    -3.9059    -3.7363 C.ar    
  23 C23            3.8049    -5.1636    -4.3124 C.ar    
  24 C24           -4.7631    -1.3062     0.8998 C.3     
  25 F25            1.1131    -4.3279    -4.9172 F       
  26 C26            4.9871    -5.4762    -4.9542 C.ar    
  27 C27            6.0076    -4.5405    -5.0248 C.ar    
  28 C28            5.8462    -3.2893    -4.4526 C.ar    
  29 C29            4.6659    -2.9668    -3.8150 C.ar    
  30 F30            7.1629    -4.8500    -5.6531 F       
  31 Cl31           5.1957    -7.0427    -5.6727 Cl      
  32 H32            2.1778    -2.3581     0.7419 H       
  33 H33            0.4042    -2.4800     0.8304 H       
  34 H34            3.1915    -0.4869    -0.2451 H       
  35 H35           -2.9827    -3.5337     0.7224 H       
  36 H36            3.3410    -2.8343    -1.2748 H       
  37 H37            1.9935     0.3578    -2.2252 H       
  38 H38            1.2331     1.6341    -1.2427 H       
  39 H39            4.2252     1.2886    -1.7431 H       
  40 H40            3.1807     2.5434    -2.4527 H       
  41 H41            4.6809     1.3744     0.6419 H       
  42 H42            3.9545     2.6890     1.5974 H       
  43 H43            1.7103     1.7239     1.2556 H       
  44 H44            2.7958     0.5088     1.9750 H       
  45 H45           -0.9195    -2.6743    -1.2563 H       
  46 H46           -0.9796    -3.6504    -3.5135 H       
  47 H47            3.0103    -5.8930    -4.2569 H       
  48 H48           -4.9984    -1.2662     1.9634 H       
  49 H49           -5.1356    -0.4059     0.4112 H       
  50 H50           -5.2354    -2.1825     0.4559 H       
  51 H51            6.6441    -2.5636    -4.5094 H       
  52 H52            4.5412    -1.9908    -3.3696 H       
@<TRIPOS>BOND
   1    1    2 1
   2    1    8 1
   3    1   11 2
   4    2    3 am
   5    2    7 2
   6    3    4 1
   7    3    6 1
   8    4    5 1
   9    4   32 1
  10    4   33 1
  11    5   12 ar
  12    5   18 ar
  13    6   13 1
  14    6   17 1
  15    6   34 1
  16    8    9 2
  17    9   10 1
  18    9   35 1
  19   10   11 1
  20   10   24 1
  21   12   21 ar
  22   12   36 1
  23   13   14 1
  24   13   37 1
  25   13   38 1
  26   14   15 1
  27   14   39 1
  28   14   40 1
  29   15   16 1
  30   16   17 1
  31   16   41 1
  32   16   42 1
  33   17   43 1
  34   17   44 1
  35   18   19 ar
  36   18   45 1
  37   19   20 ar
  38   19   46 1
  39   20   21 ar
  40   20   25 1
  41   21   22 1
  42   22   23 ar
  43   22   29 ar
  44   23   26 ar
  45   23   47 1
  46   24   48 1
  47   24   49 1
  48   24   50 1
  49   26   27 ar
  50   26   31 1
  51   27   28 ar
  52   27   30 1
  53   28   29 ar
  54   28   51 1
  55   29   52 1

#	End of record

