#	Name: ASD01918140
#	Creating user name:	WinNT
#	Creation time:	15. 06. 2019 20:10

#	Modifying user name:	WinNT
#	Modification time:	15. 06. 2019 20:10

#	Program:	/corina/corina34_cracker 3.40 0067  02.08.2006

@<TRIPOS>MOLECULE
ASD01918140
  38   41    0    0    0
SMALL
NO_CHARGES


@<TRIPOS>ATOM
   1 N1             4.8254    -0.4043    -2.1401 N.ar    
   2 C2             5.2916     0.2917    -3.1577 C.ar    
   3 C3             5.1765     1.6746    -3.1854 C.ar    
   4 C4             4.5603     2.3233    -2.1217 C.ar    
   5 C5             4.0817     1.5534    -1.0671 C.ar    
   6 C6             4.2351     0.1750    -1.1136 C.ar    
   7 O7             3.4725     2.1431    -0.0052 O.3     
   8 C8             3.4500     3.5021     0.0444 C.2     
   9 N9             2.1945     5.5119    -0.0211 N.pl3   
  10 C10            2.2656     4.1562    -0.0650 C.2     
  11 C11            4.6480     4.2065     0.2134 C.2     
  12 C12            4.6169     5.5958     0.2631 C.2     
  13 C13            3.3229     6.2657     0.1357 C.2     
  14 C14            5.8552     6.3728     0.4401 C.2     
  15 N15            5.8053     7.7189     0.4860 N.am    
  16 O16            6.9229     5.7999     0.5449 O.2     
  17 N17            1.1295     6.4204    -0.1069 N.2     
  18 C18            1.6414     7.6245    -0.0101 C.2     
  19 N19            2.9568     7.5377     0.1419 N.2     
  20 C20            6.9594     8.4498     0.7587 C.ar    
  21 O21            5.6602     2.3850    -4.2382 O.3     
  22 N22            8.1218     7.8249     0.8645 N.ar    
  23 C23            6.8810     9.8294     0.9115 C.ar    
  24 C24            8.0353    10.5433     1.1817 C.ar    
  25 C25            9.2328     9.8498     1.2901 C.ar    
  26 C26            9.2381     8.4791     1.1213 C.ar    
  27 H27            5.7693    -0.2203    -3.9799 H       
  28 H28            4.4562     3.3983    -2.1143 H       
  29 H29            3.8663    -0.4305    -0.2988 H       
  30 H30            1.3578     3.5848    -0.1905 H       
  31 H31            5.5850     3.6773     0.3044 H       
  32 H32            4.9657     8.1787     0.3291 H       
  33 H33            1.0775     8.5451    -0.0406 H       
  34 H34            5.0200     2.5175    -4.9507 H       
  35 H35            5.9322    10.3371     0.8202 H       
  36 H36            8.0052    11.6158     1.3051 H       
  37 H37           10.1516    10.3772     1.5004 H       
  38 H38           10.1681     7.9358     1.2006 H       
@<TRIPOS>BOND
   1    1    2 ar
   2    1    6 ar
   3    2    3 ar
   4    2   27 1
   5    3    4 ar
   6    3   21 1
   7    4    5 ar
   8    4   28 1
   9    5    6 ar
  10    5    7 1
  11    6   29 1
  12    7    8 1
  13    8   11 1
  14    8   10 2
  15    9   10 1
  16    9   17 1
  17    9   13 1
  18   10   30 1
  19   11   12 2
  20   11   31 1
  21   12   13 1
  22   12   14 1
  23   13   19 2
  24   14   15 am
  25   14   16 2
  26   15   20 1
  27   15   32 1
  28   17   18 2
  29   18   19 1
  30   18   33 1
  31   20   23 ar
  32   20   22 ar
  33   21   34 1
  34   22   26 ar
  35   23   24 ar
  36   23   35 1
  37   24   25 ar
  38   24   36 1
  39   25   26 ar
  40   25   37 1
  41   26   38 1

#	End of record

