#	Name: ASD01810758
#	Creating user name:	WinNT
#	Creation time:	15. 06. 2019 19:25

#	Modifying user name:	WinNT
#	Modification time:	15. 06. 2019 19:25

#	Program:	/corina/corina34_cracker 3.40 0067  02.08.2006

@<TRIPOS>MOLECULE
ASD01810758
  55   59    0    0    0
SMALL
NO_CHARGES


@<TRIPOS>ATOM
   1 C1            -0.0163     1.3502     0.0095 C.ar    
   2 C2             0.0021    -0.0041     0.0020 C.ar    
   3 C3             1.2115    -0.7161    -0.0134 C.ar    
   4 C4             2.4415    -0.0332    -0.0215 C.ar    
   5 C5             2.4289     1.4267    -0.0131 C.ar    
   6 C6             3.6135     2.1701    -0.0200 C.ar    
   7 C7             3.5556     3.5333    -0.0112 C.ar    
   8 C8             2.3316     4.1943     0.0045 C.ar    
   9 C9             1.1590     3.4993     0.0116 C.ar    
  10 C10            1.1810     2.0962     0.0020 C.ar    
  11 C11           -1.3388     2.0727     0.0196 C.3     
  12 C12           -2.4791     1.5517    -2.1567 C.ar    
  13 C13           -1.7269     2.4299    -1.3920 C.ar    
  14 C14           -1.3377     3.6375    -1.9406 C.ar    
  15 N15           -1.6739     3.9571    -3.1749 N.ar    
  16 C16           -2.8133     1.9227    -3.4505 C.ar    
  17 C17           -2.3885     3.1466    -3.9310 C.ar    
  18 C18           -2.7463     3.5603    -5.3353 C.3     
  19 C19            1.2435    -2.1842    -0.0221 C.2     
  20 N20            2.4578    -2.7815    -0.0374 N.am    
  21 C21            3.5914    -2.0366    -0.0442 C.2     
  22 N22            3.5868    -0.7355    -0.0372 N.2     
  23 C23            2.5487    -4.2436    -0.0461 C.3     
  24 C24            3.2877    -4.7011    -1.3052 C.3     
  25 C25            3.3827    -6.2282    -1.3143 C.3     
  26 C26            4.1466    -6.6991    -0.0751 C.3     
  27 C27            3.4075    -6.2416     1.1840 C.3     
  28 C28            3.3126    -4.7145     1.1931 C.3     
  29 O29            2.5743    -4.2613    -2.4626 O.3     
  30 O30            0.2168    -2.8391    -0.0154 O.2     
  31 H31           -0.9318    -0.5465     0.0084 H       
  32 H32            4.5694     1.6677    -0.0318 H       
  33 H33            4.4711     4.1062    -0.0162 H       
  34 H34            2.3101     5.2740     0.0116 H       
  35 H35            0.2165     4.0265     0.0237 H       
  36 H36           -2.1021     1.4272     0.4540 H       
  37 H37           -1.2512     2.9824     0.6136 H       
  38 H38           -2.7936     0.5994    -1.7560 H       
  39 H39           -0.7518     4.3273    -1.3513 H       
  40 H40           -3.3983     1.2633    -4.0745 H       
  41 H41           -1.9696     3.2240    -6.0221 H       
  42 H42           -3.6986     3.1099    -5.6152 H       
  43 H43           -2.8294     4.6460    -5.3842 H       
  44 H44            4.5427    -2.5476    -0.0560 H       
  45 H45            1.5456    -4.6701    -0.0384 H       
  46 H46            4.2908    -4.2747    -1.3129 H       
  47 H47            2.3796    -6.6546    -1.3067 H       
  48 H48            3.9092    -6.5541    -2.2114 H       
  49 H49            4.2142    -7.7870    -0.0816 H       
  50 H50            5.1496    -6.2726    -0.0828 H       
  51 H51            2.4044    -6.6680     1.1917 H       
  52 H52            3.9517    -6.5770     2.0668 H       
  53 H53            4.3157    -4.2881     1.1854 H       
  54 H54            2.7861    -4.3886     2.0901 H       
  55 H55            2.9865    -4.5166    -3.2993 H       
@<TRIPOS>BOND
   1    1    2 ar
   2    1   10 ar
   3    1   11 1
   4    2    3 ar
   5    2   31 1
   6    3    4 ar
   7    3   19 1
   8    4    5 ar
   9    4   22 1
  10    5    6 ar
  11    5   10 ar
  12    6    7 ar
  13    6   32 1
  14    7    8 ar
  15    7   33 1
  16    8    9 ar
  17    8   34 1
  18    9   10 ar
  19    9   35 1
  20   11   13 1
  21   11   36 1
  22   11   37 1
  23   12   13 ar
  24   12   16 ar
  25   12   38 1
  26   13   14 ar
  27   14   15 ar
  28   14   39 1
  29   15   17 ar
  30   16   17 ar
  31   16   40 1
  32   17   18 1
  33   18   41 1
  34   18   42 1
  35   18   43 1
  36   19   20 am
  37   19   30 2
  38   20   21 1
  39   20   23 1
  40   21   22 2
  41   21   44 1
  42   23   24 1
  43   23   28 1
  44   23   45 1
  45   24   25 1
  46   24   29 1
  47   24   46 1
  48   25   26 1
  49   25   47 1
  50   25   48 1
  51   26   27 1
  52   26   49 1
  53   26   50 1
  54   27   28 1
  55   27   51 1
  56   27   52 1
  57   28   53 1
  58   28   54 1
  59   29   55 1

#	End of record

