#	Name: ASD09530022
#	Creating user name:	WinNT
#	Creation time:	15. 06. 2019 21:22

#	Modifying user name:	WinNT
#	Modification time:	15. 06. 2019 21:22

#	Program:	/corina/corina34_cracker 3.40 0067  02.08.2006

@<TRIPOS>MOLECULE
ASD09530022
  58   61    0    0    0
SMALL
NO_CHARGES


@<TRIPOS>ATOM
   1 C1             0.1384     1.1669    -0.6665 C.ar    
   2 C2             0.0716    -0.2055    -0.4224 C.ar    
   3 C3             1.2432    -0.9634    -0.4082 C.ar    
   4 C4             2.4592    -0.3526    -0.6353 C.ar    
   5 C5             2.5186     1.0085    -0.8767 C.ar    
   6 C6             1.3608     1.7656    -0.8921 C.ar    
   7 C7            -1.2353    -0.8537    -0.1793 C.2     
   8 C8             3.8504     1.6691    -1.1239 C.3     
   9 C9             4.1552     1.6483    -2.5996 C.2     
  10 N10            5.3020     2.1874    -3.0585 N.am    
  11 O11            3.3685     1.1464    -3.3743 O.2     
  12 C12            5.5984     2.1671    -4.4931 C.3     
  13 C13            6.5400     3.2952    -4.8275 C.ar    
  14 N14            7.3314     3.7809    -3.8915 N.ar    
  15 C15            8.1717     4.7670    -4.1356 C.ar    
  16 C16            8.2516     5.3323    -5.3998 C.ar    
  17 C17            7.4307     4.8439    -6.4114 C.ar    
  18 C18            6.5664     3.8031    -6.1131 C.ar    
  19 O19            9.1192     6.3490    -5.6466 O.3     
  20 C20            9.9264     6.7927    -4.5541 C.3     
  21 C21            6.2504     0.8326    -4.8603 C.3     
  22 C22           -2.4368    -0.3628    -0.5719 C.2     
  23 C23           -3.4522    -1.3163    -0.1280 C.ar    
  24 C24           -2.7606    -2.3537     0.5259 C.ar    
  25 N25           -1.4180    -2.0503     0.4748 N.pl3   
  26 C26           -0.3462    -2.8731     1.0409 C.3     
  27 C27           -4.8454    -1.3656    -0.2327 C.ar    
  28 C28           -5.5287    -2.4212     0.3007 C.ar    
  29 C29           -4.8506    -3.4465     0.9465 C.ar    
  30 C30           -3.4779    -3.4186     1.0613 C.ar    
  31 C31           10.8326     7.9339    -5.0202 C.3     
  32 F32           10.0464     8.9956    -5.4804 F       
  33 F33           11.6229     8.3683    -3.9506 F       
  34 F34           11.6573     7.4813    -6.0556 F       
  35 H35           -0.7651     1.7582    -0.6832 H       
  36 H36            1.1982    -2.0259    -0.2195 H       
  37 H37            3.3667    -0.9380    -0.6242 H       
  38 H38            1.4139     2.8277    -1.0808 H       
  39 H39            3.8144     2.7011    -0.7749 H       
  40 H40            4.6291     1.1300    -0.5844 H       
  41 H41            5.9312     2.5888    -2.4389 H       
  42 H42            4.6732     2.2868    -5.0569 H       
  43 H43            8.8042     5.1388    -3.3431 H       
  44 H44            7.4694     5.2630    -7.4061 H       
  45 H45            5.9147     3.3990    -6.8736 H       
  46 H46            9.2838     7.1453    -3.7473 H       
  47 H47           10.5390     5.9655    -4.1955 H       
  48 H48            5.5694     0.0167    -4.6185 H       
  49 H49            6.4709     0.8176    -5.9277 H       
  50 H50            7.1756     0.7129    -4.2965 H       
  51 H51           -2.6106     0.5575    -1.1098 H       
  52 H52            0.0702    -3.5129     0.2628 H       
  53 H53            0.4369    -2.2270     1.4377 H       
  54 H54           -0.7483    -3.4916     1.8433 H       
  55 H55           -5.3797    -0.5716    -0.7332 H       
  56 H56           -6.6050    -2.4586     0.2199 H       
  57 H57           -5.4050    -4.2742     1.3634 H       
  58 H58           -2.9603    -4.2211     1.5656 H       
@<TRIPOS>BOND
   1    1    2 ar
   2    1    6 ar
   3    1   35 1
   4    2    3 ar
   5    2    7 1
   6    3    4 ar
   7    3   36 1
   8    4    5 ar
   9    4   37 1
  10    5    6 ar
  11    5    8 1
  12    6   38 1
  13    7   22 2
  14    7   25 1
  15    8    9 1
  16    8   39 1
  17    8   40 1
  18    9   10 am
  19    9   11 2
  20   10   12 1
  21   10   41 1
  22   12   13 1
  23   12   21 1
  24   12   42 1
  25   13   14 ar
  26   13   18 ar
  27   14   15 ar
  28   15   16 ar
  29   15   43 1
  30   16   17 ar
  31   16   19 1
  32   17   18 ar
  33   17   44 1
  34   18   45 1
  35   19   20 1
  36   20   31 1
  37   20   46 1
  38   20   47 1
  39   21   48 1
  40   21   49 1
  41   21   50 1
  42   22   23 1
  43   22   51 1
  44   23   24 ar
  45   23   27 ar
  46   24   25 1
  47   24   30 ar
  48   25   26 1
  49   26   52 1
  50   26   53 1
  51   26   54 1
  52   27   28 ar
  53   27   55 1
  54   28   29 ar
  55   28   56 1
  56   29   30 ar
  57   29   57 1
  58   30   58 1
  59   31   32 1
  60   31   33 1
  61   31   34 1

#	End of record

