#	Name: ASD04590430
#	Creating user name:	WinNT
#	Creation time:	15. 06. 2019 20:50

#	Modifying user name:	WinNT
#	Modification time:	15. 06. 2019 20:50

#	Program:	/corina/corina34_cracker 3.40 0067  02.08.2006

@<TRIPOS>MOLECULE
ASD04590430
  57   62    0    0    0
SMALL
NO_CHARGES


@<TRIPOS>ATOM
   1 C1            -0.0167     1.3832     0.0096 C.ar    
   2 C2             0.0021    -0.0041     0.0020 C.ar    
   3 C3             2.4020     0.0223    -0.0204 C.ar    
   4 C4             2.3769     1.4283    -0.0130 C.ar    
   5 C5             1.1624     2.0986     0.0022 C.ar    
   6 N6             3.7040    -0.3552    -0.0350 N.2     
   7 C7             4.4709     0.7083    -0.0371 C.2     
   8 N8             3.6969     1.8375    -0.0238 N.pl3   
   9 C9             5.9482     0.6906    -0.0520 C.2     
  10 C10            6.7657    -0.4631    -0.0668 C.2     
  11 C11            8.0579    -0.0539    -0.0775 C.2     
  12 N12            8.0646     1.3050    -0.0697 N.pl3   
  13 N13            6.7360     1.7480    -0.0596 N.2     
  14 N14            6.3188    -1.7944    -0.0696 N.am    
  15 C15            7.2108    -2.8046    -0.0843 C.2     
  16 O16            8.4027    -2.5633    -0.0953 O.2     
  17 C17            6.7414    -4.2031    -0.0872 C.ar    
  18 C18            1.1969    -0.6870    -0.0126 C.ar    
  19 C19            7.1994    -6.5643    -0.1125 C.ar    
  20 C20            5.8483    -6.8274    -0.0961 C.ar    
  21 C21            4.9326    -5.7865    -0.0829 C.ar    
  22 C22            5.3741    -4.4813    -0.0804 C.ar    
  23 C23            7.6712    -5.2582    -0.1026 C.ar    
  24 C24           -1.2962    -0.7693     0.0104 C.3     
  25 N25           -1.7313    -1.0105    -1.3718 N.3     
  26 C26           -2.8598    -1.9518    -1.4122 C.3     
  27 C27           -0.6168    -1.4976    -2.1976 C.3     
  28 C28           -1.0982    -1.6784    -3.6396 C.3     
  29 O29           -2.2148    -2.5718    -3.6557 O.3     
  30 C30           -3.3187    -2.1280    -2.8622 C.3     
  31 O31            9.0294    -5.2242    -0.0994 O.3     
  32 C32            9.5361    -6.4898    -0.5563 C.3     
  33 C33            8.4127    -7.4737    -0.1522 C.3     
  34 H34           -0.9614     1.9066     0.0170 H       
  35 H35            1.1403     3.1784     0.0079 H       
  36 H36            4.0155     2.7537    -0.0223 H       
  37 H37            8.9276    -0.6941    -0.0895 H       
  38 H38            8.8529     1.8702    -0.0744 H       
  39 H39            5.3681    -1.9869    -0.0608 H       
  40 H40            1.2037    -1.7669    -0.0178 H       
  41 H41            5.4998    -7.8497    -0.0984 H       
  42 H42            3.8737    -5.9986    -0.0703 H       
  43 H43            4.6598    -3.6712    -0.0727 H       
  44 H44           -1.1524    -1.7232     0.5177 H       
  45 H45           -2.0561    -0.1898     0.5346 H       
  46 H46           -2.5450    -2.9149    -1.0105 H       
  47 H47           -3.6829    -1.5591    -0.8152 H       
  48 H48            0.1975    -0.7734    -2.1738 H       
  49 H49           -0.2661    -2.4535    -1.8084 H       
  50 H50           -1.3986    -0.7129    -4.0468 H       
  51 H51           -0.2912    -2.0935    -4.2434 H       
  52 H52           -4.1177    -2.8683    -2.9036 H       
  53 H53           -3.6838    -1.1756    -3.2467 H       
  54 H54            9.6734    -6.4833    -1.6376 H       
  55 H55           10.4683    -6.7385    -0.0490 H       
  56 H56            8.6078    -7.9060     0.8292 H       
  57 H57            8.2899    -8.2545    -0.9029 H       
@<TRIPOS>BOND
   1    1    2 ar
   2    1    5 ar
   3    1   34 1
   4    2   18 ar
   5    2   24 1
   6    3    4 ar
   7    3    6 1
   8    3   18 ar
   9    4    5 ar
  10    4    8 1
  11    5   35 1
  12    6    7 2
  13    7    8 1
  14    7    9 1
  15    8   36 1
  16    9   10 1
  17    9   13 2
  18   10   11 2
  19   10   14 1
  20   11   12 1
  21   11   37 1
  22   12   13 1
  23   12   38 1
  24   14   15 am
  25   14   39 1
  26   15   16 2
  27   15   17 1
  28   17   23 ar
  29   17   22 ar
  30   18   40 1
  31   19   20 ar
  32   19   23 ar
  33   19   33 1
  34   20   21 ar
  35   20   41 1
  36   21   22 ar
  37   21   42 1
  38   22   43 1
  39   23   31 1
  40   24   25 1
  41   24   44 1
  42   24   45 1
  43   25   26 1
  44   25   27 1
  45   26   30 1
  46   26   46 1
  47   26   47 1
  48   27   28 1
  49   27   48 1
  50   27   49 1
  51   28   29 1
  52   28   50 1
  53   28   51 1
  54   29   30 1
  55   30   52 1
  56   30   53 1
  57   31   32 1
  58   32   33 1
  59   32   54 1
  60   32   55 1
  61   33   56 1
  62   33   57 1

#	End of record

