#	Name: ASD01912346
#	Creating user name:	WinNT
#	Creation time:	15. 06. 2019 19:59

#	Modifying user name:	WinNT
#	Modification time:	15. 06. 2019 19:59

#	Program:	/corina/corina34_cracker 3.40 0067  02.08.2006

@<TRIPOS>MOLECULE
ASD01912346
  58   61    0    0    0
SMALL
NO_CHARGES


@<TRIPOS>ATOM
   1 N1            -0.0162     1.3400     0.0094 N.am    
   2 C2             0.0022    -0.0041     0.0163 C.2     
   3 C3             1.4296    -0.5050     0.0053 C.3     
   4 C4             2.2679     0.7296     0.4104 C.3     
   5 C5             1.3436     1.8916    -0.0162 C.3     
   6 O6            -0.9824    -0.7122     0.0298 O.2     
   7 C7             2.5111     0.7520     1.8974 C.2     
   8 O8             2.0947     1.6741     2.5662 O.2     
   9 N9             3.1914    -0.2527     2.4842 N.am    
  10 C10            3.4332    -0.2393     3.9327 C.3     
  11 C11            2.8436    -1.5170     4.5434 C.3     
  12 C12            3.3256    -2.7006     3.7337 C.2     
  13 C13            3.1167    -2.6801     2.2354 C.3     
  14 C14            3.6942    -1.3763     1.6834 C.3     
  15 C15            3.9201    -3.7357     4.3256 C.2     
  16 C16            4.3696    -4.8470     3.5424 C.1     
  17 C17            4.7381    -5.7582     2.9003 C.1     
  18 C18            5.1876    -6.8695     2.1171 C.ar    
  19 C19            5.8108    -7.9530     2.7432 C.ar    
  20 C20            6.2389    -9.0181     1.9723 C.ar    
  21 C21            6.0321    -8.9695     0.5999 C.ar    
  22 C22            5.4089    -7.8668     0.0449 C.ar    
  23 N23            5.0046    -6.8661     0.7998 N.ar    
  24 C24            5.1835    -7.8121    -1.4442 C.3     
  25 C25           -1.1819     2.1137     0.0193 C.ar    
  26 C26           -1.0988     3.4952     0.1312 C.ar    
  27 C27           -2.2532     4.2569     0.1407 C.ar    
  28 C28           -3.4903     3.6419     0.0388 C.ar    
  29 C29           -3.5741     2.2666    -0.0721 C.ar    
  30 C30           -2.4238     1.5017    -0.0883 C.ar    
  31 C31           -4.7470     4.4735     0.0494 C.3     
  32 F32           -2.1744     5.6012     0.2499 F       
  33 H33            1.5578    -1.3079     0.7312 H       
  34 H34            1.7073    -0.8438    -0.9928 H       
  35 H35            3.2095     0.7587    -0.1379 H       
  36 H36            1.5966     2.2248    -1.0227 H       
  37 H37            1.4283     2.7191     0.6883 H       
  38 H38            4.5058    -0.2042     4.1238 H       
  39 H39            2.9523     0.6329     4.3754 H       
  40 H40            3.1779    -1.6182     5.5760 H       
  41 H41            1.7551    -1.4700     4.5125 H       
  42 H42            3.6267    -3.5301     1.7821 H       
  43 H43            2.0508    -2.7297     2.0128 H       
  44 H44            3.3851    -1.2525     0.6455 H       
  45 H45            4.7822    -1.4084     1.7414 H       
  46 H46            4.0629    -3.7365     5.3961 H       
  47 H47            5.9560    -7.9580     3.8133 H       
  48 H48            6.7237    -9.8690     2.4275 H       
  49 H49            6.3556    -9.7859    -0.0288 H       
  50 H50            4.2158    -8.2539    -1.6817 H       
  51 H51            5.2003    -6.7740    -1.7763 H       
  52 H52            5.9715    -8.3687    -1.9516 H       
  53 H53           -0.1342     3.9742     0.2110 H       
  54 H54           -4.5399     1.7898    -0.1507 H       
  55 H55           -2.4906     0.4277    -0.1799 H       
  56 H56           -5.0056     4.7542    -0.9716 H       
  57 H57           -5.5619     3.8950     0.4846 H       
  58 H58           -4.5826     5.3729     0.6429 H       
@<TRIPOS>BOND
   1    1    2 am
   2    1    5 1
   3    1   25 1
   4    2    3 1
   5    2    6 2
   6    3    4 1
   7    3   33 1
   8    3   34 1
   9    4    5 1
  10    4    7 1
  11    4   35 1
  12    5   36 1
  13    5   37 1
  14    7    8 2
  15    7    9 am
  16    9   10 1
  17    9   14 1
  18   10   11 1
  19   10   38 1
  20   10   39 1
  21   11   12 1
  22   11   40 1
  23   11   41 1
  24   12   13 1
  25   12   15 2
  26   13   14 1
  27   13   42 1
  28   13   43 1
  29   14   44 1
  30   14   45 1
  31   15   16 1
  32   15   46 1
  33   16   17 3
  34   17   18 1
  35   18   19 ar
  36   18   23 ar
  37   19   20 ar
  38   19   47 1
  39   20   21 ar
  40   20   48 1
  41   21   22 ar
  42   21   49 1
  43   22   23 ar
  44   22   24 1
  45   24   50 1
  46   24   51 1
  47   24   52 1
  48   25   26 ar
  49   25   30 ar
  50   26   27 ar
  51   26   53 1
  52   27   28 ar
  53   27   32 1
  54   28   29 ar
  55   28   31 1
  56   29   30 ar
  57   29   54 1
  58   30   55 1
  59   31   56 1
  60   31   57 1
  61   31   58 1

#	End of record

