#	Name: ASD03730287
#	Creating user name:	WinNT
#	Creation time:	15. 06. 2019 20:44

#	Modifying user name:	WinNT
#	Modification time:	15. 06. 2019 20:44

#	Program:	/corina/corina34_cracker 3.40 0067  02.08.2006

@<TRIPOS>MOLECULE
ASD03730287
  55   60    0    0    0
SMALL
NO_CHARGES


@<TRIPOS>ATOM
   1 O1            -0.4218     1.1787     1.1286 O.3     
   2 C2            -0.3615    -0.2584     1.1918 C.3     
   3 O3             0.7445    -0.5930     0.3330 O.3     
   4 C4             1.5695     0.4950     0.3595 C.ar    
   5 C5             0.8512     1.5846     0.8463 C.ar    
   6 C6             2.8977     0.6453     0.0036 C.ar    
   7 C7             3.5244     1.8818     0.1249 C.ar    
   8 C8             2.7936     2.9659     0.6015 C.ar    
   9 C9             1.4709     2.8175     0.9637 C.ar    
  10 O10            4.8127     2.2367    -0.1482 O.3     
  11 C11            3.7231     4.1497     0.5869 C.3     
  12 C12            4.8922     3.6687    -0.2836 C.3     
  13 N13            3.1521     6.3292     0.9699 N.am    
  14 C14            3.0717     5.3776     0.0185 C.2     
  15 C15            4.1737     4.5402     1.9629 C.ar    
  16 C16            4.8323     3.8680     2.9832 C.ar    
  17 C17            5.1154     4.5283     4.1785 C.ar    
  18 C18            4.7377     5.8467     4.3378 C.ar    
  19 C19            4.0835     6.5149     3.3229 C.ar    
  20 C20            3.7938     5.8682     2.1225 C.ar    
  21 O21            2.5720     5.4910    -1.0808 O.2     
  22 C22            5.9583    -0.1065     2.4781 C.ar    
  23 N23            6.4627     0.8075     1.6730 N.ar    
  24 C24            6.1316     2.0812     1.7986 C.ar    
  25 C25            5.2336     2.4507     2.8029 C.ar    
  26 C26            4.7241     1.4492     3.6331 C.ar    
  27 N27            5.1083     0.1994     3.4381 N.ar    
  28 C28            2.6282     7.6883     0.8135 C.3     
  29 C29            1.1765     7.7339     1.2948 C.3     
  30 C30            0.6294     9.1533     1.1315 C.3     
  31 C31           -0.8222     9.1989     1.6127 C.3     
  32 C32           -1.3694    10.6183     1.4494 C.3     
  33 H33           -0.1676    -0.5890     2.2122 H       
  34 H34           -1.2853    -0.6974     0.8150 H       
  35 H35            3.4522    -0.2027    -0.3705 H       
  36 H36            0.9173     3.6649     1.3402 H       
  37 H37            5.8411     4.0419     0.1018 H       
  38 H38            4.7504     3.9678    -1.3221 H       
  39 H39            5.6274     4.0106     4.9761 H       
  40 H40            4.9561     6.3589     5.2632 H       
  41 H41            3.7936     7.5462     3.4598 H       
  42 H42            6.2472    -1.1385     2.3442 H       
  43 H43            6.5492     2.8244     1.1355 H       
  44 H44            4.0274     1.6923     4.4217 H       
  45 H45            3.2288     8.3795     1.4048 H       
  46 H46            2.6719     7.9760    -0.2369 H       
  47 H47            0.5759     7.0427     0.7035 H       
  48 H48            1.1328     7.4462     2.3452 H       
  49 H49            1.2300     9.8445     1.7227 H       
  50 H50            0.6731     9.4410     0.0810 H       
  51 H51           -1.4229     8.5077     1.0214 H       
  52 H52           -0.8660     8.9112     2.6632 H       
  53 H53           -0.7687    11.3095     2.0407 H       
  54 H54           -1.3257    10.9059     0.3989 H       
  55 H55           -2.4036    10.6508     1.7923 H       
@<TRIPOS>BOND
   1    1    2 1
   2    1    5 1
   3    2    3 1
   4    2   33 1
   5    2   34 1
   6    3    4 1
   7    4    5 ar
   8    4    6 ar
   9    5    9 ar
  10    6    7 ar
  11    6   35 1
  12    7    8 ar
  13    7   10 1
  14    8    9 ar
  15    8   11 1
  16    9   36 1
  17   10   12 1
  18   11   12 1
  19   11   14 1
  20   11   15 1
  21   12   37 1
  22   12   38 1
  23   13   14 am
  24   13   20 1
  25   13   28 1
  26   14   21 2
  27   15   16 ar
  28   15   20 ar
  29   16   17 ar
  30   16   25 1
  31   17   18 ar
  32   17   39 1
  33   18   19 ar
  34   18   40 1
  35   19   20 ar
  36   19   41 1
  37   22   23 ar
  38   22   27 ar
  39   22   42 1
  40   23   24 ar
  41   24   25 ar
  42   24   43 1
  43   25   26 ar
  44   26   27 ar
  45   26   44 1
  46   28   29 1
  47   28   45 1
  48   28   46 1
  49   29   30 1
  50   29   47 1
  51   29   48 1
  52   30   31 1
  53   30   49 1
  54   30   50 1
  55   31   32 1
  56   31   51 1
  57   31   52 1
  58   32   53 1
  59   32   54 1
  60   32   55 1

#	End of record

