#	Name: ASD05060107
#	Creating user name:	WinNT
#	Creation time:	15. 06. 2019 20:56

#	Modifying user name:	WinNT
#	Modification time:	15. 06. 2019 20:56

#	Program:	/corina/corina34_cracker 3.40 0067  02.08.2006

@<TRIPOS>MOLECULE
ASD05060107
  51   53    0    0    0
SMALL
NO_CHARGES


@<TRIPOS>ATOM
   1 C1            -0.0168     1.3900     0.0097 C.ar    
   2 C2             0.0021    -0.0041     0.0020 C.ar    
   3 C3             1.1975    -0.6668    -0.0130 C.ar    
   4 C4             2.3932     0.0379    -0.0201 C.ar    
   5 C5             2.3964     1.4154    -0.0128 C.ar    
   6 C6            -1.0897     2.3973     0.0195 C.2     
   7 C7             1.1903     2.1094     0.0020 C.ar    
   8 N8             0.8709     3.4497     0.0123 N.pl3   
   9 C9            -0.4848     3.6102     0.0237 C.2     
  10 C10           -2.5487     2.1362     0.0238 C.ar    
  11 C11           -3.1436     1.5057     1.1159 C.ar    
  12 C12           -4.5025     1.2656     1.1145 C.ar    
  13 C13           -5.2742     1.6487     0.0323 C.ar    
  14 C14           -4.6895     2.2742    -1.0543 C.ar    
  15 C15           -3.3326     2.5252    -1.0616 C.ar    
  16 C16            1.8450     4.5440     0.0089 C.3     
  17 C17           -1.2008     4.9362     0.0337 C.3     
  18 C18           -1.4489     5.3927    -1.4054 C.3     
  19 C19           -2.2715     6.6554    -1.3970 C.2     
  20 O20           -0.1974     5.6438    -2.0478 O.3     
  21 C21           -0.2113     5.4128    -3.4580 C.3     
  22 C22           -1.2473     6.3275    -4.1144 C.3     
  23 C23            1.1728     5.7116    -4.0374 C.3     
  24 C24           -0.5744     3.9520    -3.7319 C.3     
  25 O25           -1.7976     7.6879    -1.8085 O.2     
  26 O26           -3.5306     6.6330    -0.9325 O.3     
  27 H27           -0.9247    -0.5585     0.0083 H       
  28 H28            1.2116    -1.7467    -0.0189 H       
  29 H29            3.3302    -0.4990    -0.0313 H       
  30 H30            3.3319     1.9550    -0.0181 H       
  31 H31           -2.5419     1.2055     1.9611 H       
  32 H32           -4.9643     0.7773     1.9599 H       
  33 H33           -6.3373     1.4585     0.0355 H       
  34 H34           -5.2969     2.5705    -1.8968 H       
  35 H35           -2.8780     3.0179    -1.9083 H       
  36 H36            2.0764     4.8212    -1.0196 H       
  37 H37            1.4269     5.4042     0.5317 H       
  38 H38            2.7564     4.2208     0.5119 H       
  39 H39           -2.1545     4.8302     0.5508 H       
  40 H40           -0.5884     5.6760     0.5492 H       
  41 H41           -1.9852     4.6133    -1.9465 H       
  42 H42           -0.9887     7.3682    -3.9193 H       
  43 H43           -1.2580     6.1513    -5.1900 H       
  44 H44           -2.2334     6.1146    -3.7016 H       
  45 H45            1.9109     5.0599    -3.5698 H       
  46 H46            1.1622     5.5354    -5.1130 H       
  47 H47            1.4315     6.7523    -3.8423 H       
  48 H48           -1.5605     3.7391    -3.3191 H       
  49 H49           -0.5850     3.7758    -4.8075 H       
  50 H50            0.1637     3.3003    -3.2642 H       
  51 H51           -4.0189     7.4676    -0.9472 H       
@<TRIPOS>BOND
   1    1    2 ar
   2    1    7 ar
   3    1    6 1
   4    2    3 ar
   5    2   27 1
   6    3    4 ar
   7    3   28 1
   8    4    5 ar
   9    4   29 1
  10    5    7 ar
  11    5   30 1
  12    6    9 2
  13    6   10 1
  14    7    8 1
  15    8    9 1
  16    8   16 1
  17    9   17 1
  18   10   11 ar
  19   10   15 ar
  20   11   12 ar
  21   11   31 1
  22   12   13 ar
  23   12   32 1
  24   13   14 ar
  25   13   33 1
  26   14   15 ar
  27   14   34 1
  28   15   35 1
  29   16   36 1
  30   16   37 1
  31   16   38 1
  32   17   18 1
  33   17   39 1
  34   17   40 1
  35   18   19 1
  36   18   20 1
  37   18   41 1
  38   19   25 2
  39   19   26 1
  40   20   21 1
  41   21   22 1
  42   21   23 1
  43   21   24 1
  44   22   42 1
  45   22   43 1
  46   22   44 1
  47   23   45 1
  48   23   46 1
  49   23   47 1
  50   24   48 1
  51   24   49 1
  52   24   50 1
  53   26   51 1

#	End of record

