#	Name: ASD01885417
#	Creating user name:	WinNT
#	Creation time:	15. 06. 2019 19:49

#	Modifying user name:	WinNT
#	Modification time:	15. 06. 2019 19:49

#	Program:	/corina/corina34_cracker 3.40 0067  02.08.2006

@<TRIPOS>MOLECULE
ASD01885417
  32   33    0    0    0
SMALL
NO_CHARGES


@<TRIPOS>ATOM
   1 C1            -0.0168     1.3878     0.0097 C.ar    
   2 C2             0.0021    -0.0041     0.0020 C.ar    
   3 N3            -1.1192    -0.7782     0.0190 N.2     
   4 C4            -2.1850    -0.5736    -0.6422 C.2     
   5 C5            -2.3457     0.6219    -1.5436 C.3     
   6 C6            -2.2779     1.8645    -0.6919 C.2     
   7 N7            -1.1827     2.1428     0.0180 N.am    
   8 C8             1.1908     2.0886     0.0019 C.ar    
   9 C9             2.3958     1.4188    -0.0176 C.ar    
  10 C10            2.4197     0.0342    -0.0306 C.ar    
  11 C11            1.2378    -0.6745    -0.0206 C.ar    
  12 C12           -3.3211    -1.5563    -0.5211 C.3     
  13 O13           -3.2275     2.6180    -0.6519 O.2     
  14 Br14           4.0174     2.3916    -0.0271 Br      
  15 F15            1.2667    -2.0251    -0.0331 F       
  16 H16           -1.5433     0.6371    -2.2811 H       
  17 H17           -3.3102     0.5746    -2.0492 H       
  18 H18           -1.2022     2.9318     0.5819 H       
  19 H19            1.1810     3.1685     0.0109 H       
  20 H20            3.3638    -0.4899    -0.0485 H       
  21 H21           -3.0393    -2.3546     0.1655 H       
  22 H22           -4.2050    -1.0446    -0.1403 H       
  23 H23           -3.5407    -1.9804    -1.5009 H       
  24 N24            9.9266    11.2406     5.6114 N.ar    
  25 C25            9.9445     9.9211     5.6042 C.ar    
  26 C26           11.1555     9.2479     5.5890 C.ar    
  27 C27           12.3211    10.0037     5.5819 C.ar    
  28 C28           12.2008    11.3841     5.5905 C.ar    
  29 N29           11.0035    11.9388     5.6049 N.ar    
  30 H30            9.0174     9.3672     5.6104 H       
  31 H31           11.1922     8.1685     5.5832 H       
  32 H32           13.0847    12.0045     5.5857 H       
@<TRIPOS>BOND
   1    1    2 ar
   2    1    8 ar
   3    1    7 1
   4    2    3 1
   5    2   11 ar
   6    3    4 2
   7    4    5 1
   8    4   12 1
   9    5    6 1
  10    5   16 1
  11    5   17 1
  12    6    7 am
  13    6   13 2
  14    7   18 1
  15    8    9 ar
  16    8   19 1
  17    9   10 ar
  18    9   14 1
  19   10   11 ar
  20   10   20 1
  21   11   15 1
  22   12   21 1
  23   12   22 1
  24   12   23 1
  25   24   25 ar
  26   24   29 ar
  27   25   26 ar
  28   25   30 1
  29   26   27 ar
  30   26   31 1
  31   27   28 ar
  32   28   29 ar
  33   28   32 1

#	End of record

