#	Name: ASD00110030
#	Creating user name:	WinNT
#	Creation time:	15. 06. 2019 18:30

#	Modifying user name:	WinNT
#	Modification time:	15. 06. 2019 18:30

#	Program:	/corina/corina34_cracker 3.40 0067  02.08.2006

@<TRIPOS>MOLECULE
ASD00110030
  64   66    0    0    0
SMALL
NO_CHARGES


@<TRIPOS>ATOM
   1 C1            -0.0187     1.5270     0.0104 C.3     
   2 C2            -1.4335    -0.5293     0.0744 C.3     
   3 C3            -1.4169    -2.0361     0.0863 C.2     
   4 N4            -1.2604    -2.7174    -1.0660 N.am    
   5 O5            -1.5445    -2.6357     1.1328 O.2     
   6 C6            -1.2442    -4.1823    -1.0544 C.3     
   7 C7             0.1704    -4.6743    -0.7422 C.3     
   8 O8             1.0513    -4.2949    -1.8015 O.3     
   9 C9            -1.6762    -4.7079    -2.4248 C.3     
  10 O10           -0.7107    -4.3270    -3.4070 O.3     
  11 C11            1.4162     2.0578    -0.0004 C.3     
  12 C12            1.3948     3.5832    -0.1177 C.3     
  13 N13           -2.0748    -0.0373     1.3005 N.3     
  14 C14           -2.1488     1.4293     1.3093 C.3     
  15 C15           -0.7345     2.0129     1.2737 C.3     
  16 C16            0.0021    -0.0041     0.0020 C.3     
  17 C17           -3.0178    -4.1246    -2.7865 C.ar    
  18 C18           -5.4791    -3.0542    -3.4496 C.ar    
  19 C19           -4.3222    -2.3492    -3.7242 C.ar    
  20 C20           -3.0915    -2.8843    -3.3924 C.ar    
  21 C21           -4.1744    -4.8323    -2.5176 C.ar    
  22 C22           -5.4050    -4.2972    -2.8494 C.ar    
  23 C23            2.8297     4.1141    -0.1286 C.3     
  24 C24            2.8128     5.6247    -0.3708 C.3     
  25 C25            4.2477     6.1555    -0.3817 C.3     
  26 C26            4.9101     5.8625     0.9660 C.3     
  27 C27            4.9270     4.3519     1.2082 C.3     
  28 C28            3.4921     3.8210     1.2191 C.3     
  29 H29           -0.5477     1.8889    -0.8712 H       
  30 H30           -1.9924    -0.1790    -0.7934 H       
  31 H31           -1.1584    -2.2379    -1.9029 H       
  32 H32           -1.9324    -4.5472    -0.2919 H       
  33 H33            0.5123    -4.2285     0.1919 H       
  34 H34            0.1645    -5.7600    -0.6458 H       
  35 H35            1.9676    -4.5747    -1.6703 H       
  36 H36           -1.7499    -5.7949    -2.3903 H       
  37 H37           -0.5925    -3.3710    -3.4924 H       
  38 H38            1.9165     1.7716     0.9247 H       
  39 H39            1.9534     1.6356    -0.8497 H       
  40 H40            0.8945     3.8694    -1.0429 H       
  41 H41            0.8576     4.0054     0.7315 H       
  42 H42           -2.9896    -0.4462     1.4192 H       
  43 H43           -2.7044     1.7701     0.4357 H       
  44 H44           -2.6563     1.7619     2.2148 H       
  45 H45           -0.1827     1.6836     2.1542 H       
  46 H46           -0.7902     3.1015     1.2645 H       
  47 H47            0.4727    -0.3566    -0.9158 H       
  48 H48            0.5655    -0.3651     0.8624 H       
  49 H49           -6.4406    -2.6362    -3.7088 H       
  50 H50           -4.3801    -1.3781    -4.1932 H       
  51 H51           -2.1877    -2.3331    -3.6062 H       
  52 H52           -4.1165    -5.8035    -2.0486 H       
  53 H53           -6.3089    -4.8480    -2.6348 H       
  54 H54            3.3921     3.6248    -0.9239 H       
  55 H55            2.3409     5.8334    -1.3309 H       
  56 H56            2.2504     6.1139     0.4245 H       
  57 H57            4.8101     5.6663    -1.1770 H       
  58 H58            4.2356     7.2317    -0.5542 H       
  59 H59            5.9323     6.2407     0.9583 H       
  60 H60            4.3477     6.3517     1.7613 H       
  61 H61            5.4894     3.8627     0.4130 H       
  62 H62            5.3989     4.1431     2.1684 H       
  63 H63            2.9297     4.3103     2.0144 H       
  64 H64            3.5042     2.7448     1.3917 H       
@<TRIPOS>BOND
   1    1   16 1
   2    1   11 1
   3    1   15 1
   4    1   29 1
   5    2    3 1
   6    2   13 1
   7    2   16 1
   8    2   30 1
   9    3    4 am
  10    3    5 2
  11    4    6 1
  12    4   31 1
  13    6    7 1
  14    6    9 1
  15    6   32 1
  16    7    8 1
  17    7   33 1
  18    7   34 1
  19    8   35 1
  20    9   10 1
  21    9   17 1
  22    9   36 1
  23   10   37 1
  24   11   12 1
  25   11   38 1
  26   11   39 1
  27   12   23 1
  28   12   40 1
  29   12   41 1
  30   13   14 1
  31   13   42 1
  32   14   15 1
  33   14   43 1
  34   14   44 1
  35   15   45 1
  36   15   46 1
  37   16   47 1
  38   16   48 1
  39   17   21 ar
  40   17   20 ar
  41   18   19 ar
  42   18   22 ar
  43   18   49 1
  44   19   20 ar
  45   19   50 1
  46   20   51 1
  47   21   22 ar
  48   21   52 1
  49   22   53 1
  50   23   24 1
  51   23   28 1
  52   23   54 1
  53   24   25 1
  54   24   55 1
  55   24   56 1
  56   25   26 1
  57   25   57 1
  58   25   58 1
  59   26   27 1
  60   26   59 1
  61   26   60 1
  62   27   28 1
  63   27   61 1
  64   27   62 1
  65   28   63 1
  66   28   64 1

#	End of record

