#	Name: ASD02560017
#	Creating user name:	WinNT
#	Creation time:	15. 06. 2019 20:24

#	Modifying user name:	WinNT
#	Modification time:	15. 06. 2019 20:24

#	Program:	/corina/corina34_cracker 3.40 0067  02.08.2006

@<TRIPOS>MOLECULE
ASD02560017
  26   27    0    0    0
SMALL
NO_CHARGES


@<TRIPOS>ATOM
   1 C1            -0.0163     1.3508     0.0095 C.2     
   2 C2             0.0021    -0.0041     0.0020 C.2     
   3 N3            -1.1794    -0.6868     0.0096 N.am    
   4 C4            -2.3488    -0.0212     0.0243 C.2     
   5 N5            -2.3829     1.3101     0.0313 N.2     
   6 C6            -1.2605     2.0170     0.0308 C.2     
   7 N7            -1.3090     3.3924     0.0386 N.pl3   
   8 F8             1.1380     2.0528     0.0022 F       
   9 O9            -3.3955    -0.6479     0.0309 O.2     
  10 C10           -1.1747    -2.1517     0.0012 C.3     
  11 O11            0.1691    -2.6021     0.0196 O.3     
  12 C12            0.5642    -3.4112     1.1427 C.3     
  13 S13           -1.0337    -4.1429     1.6929 S.3     
  14 C14           -2.0092    -2.6576     1.2022 C.3     
  15 C15            1.5407    -4.5054     0.7066 C.3     
  16 O16            0.9139    -5.3429    -0.2669 O.3     
  17 H17            0.9411    -0.5375    -0.0101 H       
  18 H18           -2.1656     3.8475     0.0445 H       
  19 H19           -0.4865     3.9067     0.0382 H       
  20 H20           -1.6463    -2.4965    -0.9191 H       
  21 H21            0.9987    -2.7948     1.9297 H       
  22 H22           -2.0331    -1.9196     2.0040 H       
  23 H23           -3.0175    -2.9331     0.8930 H       
  24 H24            2.4298    -4.0473     0.2734 H       
  25 H25            1.8254    -5.1042     1.5718 H       
  26 H26            1.4764    -6.0604    -0.5891 H       
@<TRIPOS>BOND
   1    1    2 2
   2    1    8 1
   3    1    6 1
   4    2    3 1
   5    2   17 1
   6    3    4 am
   7    3   10 1
   8    4    5 1
   9    4    9 2
  10    5    6 2
  11    6    7 1
  12    7   18 1
  13    7   19 1
  14   10   11 1
  15   10   14 1
  16   10   20 1
  17   11   12 1
  18   12   13 1
  19   12   15 1
  20   12   21 1
  21   13   14 1
  22   14   22 1
  23   14   23 1
  24   15   16 1
  25   15   24 1
  26   15   25 1
  27   16   26 1

#	End of record

