#	Name: ASD01916214
#	Creating user name:	WinNT
#	Creation time:	15. 06. 2019 20:06

#	Modifying user name:	WinNT
#	Modification time:	15. 06. 2019 20:06

#	Program:	/corina/corina34_cracker 3.40 0067  02.08.2006

@<TRIPOS>MOLECULE
ASD01916214
  39   41    0    0    0
SMALL
NO_CHARGES


@<TRIPOS>ATOM
   1 C1            -0.3863     1.7167     0.1126 C.ar    
   2 C2            -0.5130     0.3660     0.3820 C.ar    
   3 N3             0.5338    -0.3597     0.7136 N.ar    
   4 C4             1.7498     0.1667     0.8036 C.ar    
   5 C5             1.9572     1.5183     0.5474 C.ar    
   6 C6             0.8694     2.3127     0.1942 C.ar    
   7 C7            -1.8697    -0.2843     0.2952 C.3     
   8 O8             1.0293     3.6356    -0.0642 O.3     
   9 C9             2.2790     4.1596     0.0401 C.ar    
  10 C10            3.2184     3.9708    -0.9684 C.ar    
  11 N11            4.4241     4.4969    -0.8294 N.ar    
  12 C12            4.7393     5.1912     0.2456 C.ar    
  13 N13            3.8775     5.3920     1.2222 N.ar    
  14 C14            2.6500     4.9035     1.1556 C.ar    
  15 C15            2.8957    -0.6931     1.1806 C.2     
  16 N16            2.7016    -2.0032     1.4305 N.am    
  17 O17            4.0106    -0.2172     1.2646 O.2     
  18 C18            3.7918    -2.8333     1.6817 C.ar    
  19 C19            3.5967    -4.2025     1.8230 C.ar    
  20 C20            4.6884    -5.0157     2.0723 C.ar    
  21 C21            5.9423    -4.4289     2.1720 C.ar    
  22 C22            6.0628    -3.0613     2.0207 C.ar    
  23 N23            5.0048    -2.3118     1.7783 N.ar    
  24 C24            7.1595    -5.2751     2.4430 C.3     
  25 F25           -1.9340    -1.3514     1.1976 F       
  26 F26           -2.8578     0.6542     0.6116 F       
  27 H27           -1.2514     2.3018    -0.1626 H       
  28 H28            2.9466     1.9450     0.6218 H       
  29 H29           -2.0311    -0.6544    -0.7173 H       
  30 H30            2.9671     3.4027    -1.8519 H       
  31 H31            5.7324     5.6073     0.3287 H       
  32 H32            1.9473     5.0762     1.9574 H       
  33 H33            1.8029    -2.3680     1.4355 H       
  34 H34            2.6066    -4.6258     1.7398 H       
  35 H35            4.5674    -6.0828     2.1871 H       
  36 H36            7.0364    -2.6002     2.0977 H       
  37 H37            7.5916    -5.6035     1.4977 H       
  38 H38            7.8945    -4.6883     2.9941 H       
  39 H39            6.8729    -6.1454     3.0333 H       
@<TRIPOS>BOND
   1    1    2 ar
   2    1    6 ar
   3    1   27 1
   4    2    3 ar
   5    2    7 1
   6    3    4 ar
   7    4    5 ar
   8    4   15 1
   9    5    6 ar
  10    5   28 1
  11    6    8 1
  12    7   25 1
  13    7   26 1
  14    7   29 1
  15    8    9 1
  16    9   10 ar
  17    9   14 ar
  18   10   11 ar
  19   10   30 1
  20   11   12 ar
  21   12   13 ar
  22   12   31 1
  23   13   14 ar
  24   14   32 1
  25   15   16 am
  26   15   17 2
  27   16   18 1
  28   16   33 1
  29   18   19 ar
  30   18   23 ar
  31   19   20 ar
  32   19   34 1
  33   20   21 ar
  34   20   35 1
  35   21   22 ar
  36   21   24 1
  37   22   23 ar
  38   22   36 1
  39   24   37 1
  40   24   38 1
  41   24   39 1

#	End of record

