#	Name: ASD01890333
#	Creating user name:	WinNT
#	Creation time:	15. 06. 2019 19:50

#	Modifying user name:	WinNT
#	Modification time:	15. 06. 2019 19:50

#	Program:	/corina/corina34_cracker 3.40 0067  02.08.2006

@<TRIPOS>MOLECULE
ASD01890333
  43   45    0    0    0
SMALL
NO_CHARGES


@<TRIPOS>ATOM
   1 C1            -0.0184     1.5028     0.0103 C.2     
   2 C2             0.0021    -0.0041     0.0020 C.3     
   3 C3             1.4513    -0.4944    -0.0145 C.3     
   4 C4             1.4750    -2.0197     0.1029 C.3     
   5 O5             1.0197     2.1211     0.0037 O.2     
   6 O6            -1.1898     2.1580     0.0194 O.3     
   7 C7             2.1073    -0.0797    -1.3063 C.ar    
   8 C8             3.2227     0.7366    -1.2838 C.ar    
   9 C9             3.8248     1.1173    -2.4683 C.ar    
  10 C10            3.3108     0.6813    -3.6765 C.ar    
  11 C11            2.1945    -0.1356    -3.6984 C.ar    
  12 C12            1.5966    -0.5202    -2.5130 C.ar    
  13 Cl13           4.0661     1.1595    -5.1647 Cl      
  14 C14            2.9017    -2.4931     0.2102 C.2     
  15 N15            3.8455    -2.2142    -0.6408 N.2     
  16 C16            5.0054    -2.7981    -0.2437 C.ar    
  17 C17            4.7292    -3.4864     0.9500 C.ar    
  18 N18            3.3916    -3.2695     1.2141 N.pl3   
  19 C19            6.2993    -2.8263    -0.7697 C.ar    
  20 C20            7.2824    -3.5201    -0.1223 C.ar    
  21 C21            7.0103    -4.1997     1.0562 C.ar    
  22 C22            5.7406    -4.1857     1.5938 C.ar    
  23 C23           -1.1335     3.6089     0.0270 C.3     
  24 C24           -2.5551     4.1744     0.0369 C.3     
  25 H25           -0.4983    -0.3791     0.8948 H       
  26 H26           -0.5153    -0.3696    -0.8850 H       
  27 H27            1.9924    -0.0570     0.8246 H       
  28 H28            0.9232    -2.3243     0.9921 H       
  29 H29            1.0118    -2.4593    -0.7805 H       
  30 H30            3.6236     1.0772    -0.3406 H       
  31 H31            4.6960     1.7553    -2.4506 H       
  32 H32            1.7928    -0.4763    -4.6412 H       
  33 H33            0.7278    -1.1615    -2.5297 H       
  34 H34            2.8930    -3.6095     1.9735 H       
  35 H35            6.5220    -2.3011    -1.6867 H       
  36 H36            8.2814    -3.5398    -0.5323 H       
  37 H37            7.7984    -4.7434     1.5559 H       
  38 H38            5.5342    -4.7162     2.5116 H       
  39 H39           -0.6017     3.9472     0.9164 H       
  40 H40           -0.6102     3.9569    -0.8636 H       
  41 H41           -3.0869     3.8361    -0.8525 H       
  42 H42           -3.0784     3.8265     0.9275 H       
  43 H43           -2.5128     5.2636     0.0426 H       
@<TRIPOS>BOND
   1    1    2 1
   2    1    5 2
   3    1    6 1
   4    2    3 1
   5    2   25 1
   6    2   26 1
   7    3    4 1
   8    3    7 1
   9    3   27 1
  10    4   14 1
  11    4   28 1
  12    4   29 1
  13    6   23 1
  14    7    8 ar
  15    7   12 ar
  16    8    9 ar
  17    8   30 1
  18    9   10 ar
  19    9   31 1
  20   10   11 ar
  21   10   13 1
  22   11   12 ar
  23   11   32 1
  24   12   33 1
  25   14   15 2
  26   14   18 1
  27   15   16 1
  28   16   17 ar
  29   16   19 ar
  30   17   18 1
  31   17   22 ar
  32   18   34 1
  33   19   20 ar
  34   19   35 1
  35   20   21 ar
  36   20   36 1
  37   21   22 ar
  38   21   37 1
  39   22   38 1
  40   23   24 1
  41   23   39 1
  42   23   40 1
  43   24   41 1
  44   24   42 1
  45   24   43 1

#	End of record

