#	Name: ASD01940239
#	Creating user name:	WinNT
#	Creation time:	15. 06. 2019 20:12

#	Modifying user name:	WinNT
#	Modification time:	15. 06. 2019 20:12

#	Program:	/corina/corina34_cracker 3.40 0067  02.08.2006

@<TRIPOS>MOLECULE
ASD01940239
  42   44    0    0    0
SMALL
NO_CHARGES


@<TRIPOS>ATOM
   1 C1             0.4128     1.0255     0.2380 C.2     
   2 N2             0.3025    -0.2723     0.1571 N.2     
   3 C3             1.5267    -0.8180     0.1054 C.2     
   4 C4             2.4299     0.1796     0.1561 C.2     
   5 N5             1.7239     1.3493     0.2402 N.pl3   
   6 S6             1.8895    -2.5385    -0.0084 S.o2    
   7 O7             1.8036    -2.8764    -1.3859 O.2     
   8 O8             3.0560    -2.7551     0.7737 O.2     
   9 N9             0.6609    -3.3497     0.7497 N.am    
  10 C10           -0.7331     2.0015     0.3103 C.3     
  11 C11            2.2856     2.7001     0.3181 C.3     
  12 C12           -0.6543    -3.2243     0.2828 C.ar    
  13 C13           -1.7176    -3.2131     1.1847 C.ar    
  14 C14           -3.0185    -3.0881     0.7166 C.ar    
  15 C15           -3.2563    -2.9751    -0.6443 C.ar    
  16 C16           -2.1991    -2.9870    -1.5375 C.ar    
  17 C17           -0.9004    -3.1055    -1.0764 C.ar    
  18 N18           -1.4737    -3.3280     2.5602 N.pl3   
  19 C19           -2.5073    -3.7018     3.4248 C.ar    
  20 C20           -2.9519    -5.0200     3.4512 C.ar    
  21 C21           -3.9736    -5.3854     4.3077 C.ar    
  22 C22           -4.5534    -4.4414     5.1371 C.ar    
  23 C23           -4.1133    -3.1307     5.1120 C.ar    
  24 C24           -3.0883    -2.7598     4.2628 C.ar    
  25 I25           -6.1020    -4.9993     6.4331 I       
  26 F26           -2.3864    -5.9413     2.6409 F       
  27 F27           -4.5224    -2.8536    -1.0997 F       
  28 F28           -4.0520    -3.0772     1.5867 F       
  29 H29            3.5048     0.0766     0.1348 H       
  30 H30            0.8517    -3.9116     1.5170 H       
  31 H31           -0.9994     2.1725     1.3534 H       
  32 H32           -0.4363     2.9448    -0.1482 H       
  33 H33           -1.5922     1.5933    -0.2219 H       
  34 H34            2.4392     2.9700     1.3629 H       
  35 H35            3.2396     2.7278    -0.2084 H       
  36 H36            1.5958     3.4075    -0.1423 H       
  37 H37           -2.3885    -2.8995    -2.5972 H       
  38 H38           -0.0777    -3.1096    -1.7761 H       
  39 H39           -0.5879    -3.1483     2.9124 H       
  40 H40           -4.3197    -6.4082     4.3294 H       
  41 H41           -4.5687    -2.3966     5.7602 H       
  42 H42           -2.7426    -1.7367     4.2475 H       
@<TRIPOS>BOND
   1    1    2 2
   2    1    5 1
   3    1   10 1
   4    2    3 1
   5    3    4 2
   6    3    6 1
   7    4    5 1
   8    4   29 1
   9    5   11 1
  10    6    7 2
  11    6    8 2
  12    6    9 am
  13    9   12 1
  14    9   30 1
  15   10   31 1
  16   10   32 1
  17   10   33 1
  18   11   34 1
  19   11   35 1
  20   11   36 1
  21   12   13 ar
  22   12   17 ar
  23   13   14 ar
  24   13   18 1
  25   14   15 ar
  26   14   28 1
  27   15   16 ar
  28   15   27 1
  29   16   17 ar
  30   16   37 1
  31   17   38 1
  32   18   19 1
  33   18   39 1
  34   19   20 ar
  35   19   24 ar
  36   20   21 ar
  37   20   26 1
  38   21   22 ar
  39   21   40 1
  40   22   23 ar
  41   22   25 1
  42   23   24 ar
  43   23   41 1
  44   24   42 1

#	End of record

