#	Name: ASD01900908
#	Creating user name:	WinNT
#	Creation time:	15. 06. 2019 19:52

#	Modifying user name:	WinNT
#	Modification time:	15. 06. 2019 19:52

#	Program:	/corina/corina34_cracker 3.40 0067  02.08.2006

@<TRIPOS>MOLECULE
ASD01900908
  49   51    0    0    0
SMALL
NO_CHARGES


@<TRIPOS>ATOM
   1 C1            -0.8606     0.7185     0.7638 C.ar    
   2 C2             0.4629     0.5369     1.1600 C.ar    
   3 C3             0.9609    -0.7513     1.2733 C.ar    
   4 C4             0.1178    -1.8138     0.9863 C.ar    
   5 C5            -1.1875    -1.5594     0.5977 C.ar    
   6 N6            -1.6347    -0.3265     0.4982 N.ar    
   7 C7            -1.4099     2.0887     0.6439 C.2     
   8 O8            -0.7070     3.0489     0.8907 O.2     
   9 N9            -2.6893     2.2707     0.2611 N.am    
  10 S10           -4.8036     3.9315    -0.3247 S.3     
  11 C11           -3.2044     3.5555     0.1487 C.2     
  12 N12           -2.5427     4.6444     0.3881 N.2     
  13 C13           -3.1902     5.7837     0.2311 C.2     
  14 C14           -4.4594     5.6513    -0.1597 C.2     
  15 C15           -2.5484     7.1255     0.4739 C.3     
  16 S16           -5.5928     6.9669    -0.4585 S.o2    
  17 O17           -4.7777     8.0319    -0.9283 O.2     
  18 O18           -6.5912     6.3879    -1.2874 O.2     
  19 C19           -6.2722     7.3592     1.1771 C.3     
  20 C20           -7.2671     8.4842     1.0512 C.ar    
  21 C21           -8.6009     8.2046     0.8196 C.ar    
  22 C22           -9.5134     9.2365     0.7041 C.ar    
  23 C23           -9.0922    10.5479     0.8205 C.ar    
  24 C24           -7.7585    10.8275     1.0529 C.ar    
  25 C25           -6.8467     9.7954     1.1728 C.ar    
  26 C26          -10.0868    11.6729     0.6935 C.3     
  27 C27          -10.1008    12.4898     1.9871 C.3     
  28 C28           -9.6888    12.5760    -0.4756 C.3     
  29 H29            1.0918     1.3881     1.3755 H       
  30 H30            1.9826    -0.9236     1.5779 H       
  31 H31            0.4753    -2.8299     1.0645 H       
  32 H32           -1.8469    -2.3848     0.3734 H       
  33 H33           -3.2503     1.5043     0.0641 H       
  34 H34           -2.1796     7.5279    -0.4696 H       
  35 H35           -3.2844     7.8089     0.8974 H       
  36 H36           -1.7171     7.0101     1.1694 H       
  37 H37           -6.7690     6.4788     1.5848 H       
  38 H38           -5.4642     7.6616     1.8432 H       
  39 H39           -8.9300     7.1800     0.7287 H       
  40 H40          -10.5554     9.0181     0.5225 H       
  41 H41           -7.4293    11.8521     1.1435 H       
  42 H42           -5.8053    10.0137     1.3581 H       
  43 H43          -11.0799    11.2613     0.5130 H       
  44 H44          -10.3844    11.8464     2.8200 H       
  45 H45           -9.1078    12.9014     2.1677 H       
  46 H46          -10.8202    13.3035     1.8953 H       
  47 H47           -9.6789    11.9941    -1.3972 H       
  48 H48          -10.4083    13.3897    -0.5675 H       
  49 H49           -8.6958    12.9877    -0.2951 H       
@<TRIPOS>BOND
   1    1    2 ar
   2    1    6 ar
   3    1    7 1
   4    2    3 ar
   5    2   29 1
   6    3    4 ar
   7    3   30 1
   8    4    5 ar
   9    4   31 1
  10    5    6 ar
  11    5   32 1
  12    7    8 2
  13    7    9 am
  14    9   11 1
  15    9   33 1
  16   10   11 1
  17   10   14 1
  18   11   12 2
  19   12   13 1
  20   13   14 2
  21   13   15 1
  22   14   16 1
  23   15   34 1
  24   15   35 1
  25   15   36 1
  26   16   17 2
  27   16   18 2
  28   16   19 1
  29   19   20 1
  30   19   37 1
  31   19   38 1
  32   20   21 ar
  33   20   25 ar
  34   21   22 ar
  35   21   39 1
  36   22   23 ar
  37   22   40 1
  38   23   24 ar
  39   23   26 1
  40   24   25 ar
  41   24   41 1
  42   25   42 1
  43   26   27 1
  44   26   28 1
  45   26   43 1
  46   27   44 1
  47   27   45 1
  48   27   46 1
  49   28   47 1
  50   28   48 1
  51   28   49 1

#	End of record

