#	Name: ASD07930823
#	Creating user name:	WinNT
#	Creation time:	15. 06. 2019 21:13

#	Modifying user name:	WinNT
#	Modification time:	15. 06. 2019 21:13

#	Program:	/corina/corina34_cracker 3.40 0067  02.08.2006

@<TRIPOS>MOLECULE
ASD07930823
  79   85    0    0    0
SMALL
NO_CHARGES


@<TRIPOS>ATOM
   1 C1             1.5150     1.9897    -0.5962 C.2     
   2 C2             1.6466     0.5251    -0.7434 C.ar    
   3 C3             2.8798    -0.0932    -0.5290 C.ar    
   4 C4             2.9957    -1.4607    -0.6683 C.ar    
   5 C5             1.8933    -2.2193    -1.0200 C.ar    
   6 C6             0.6681    -1.6130    -1.2339 C.ar    
   7 C7             0.5369    -0.2470    -1.0920 C.ar    
   8 O8             2.4816     2.6586    -0.2878 O.2     
   9 N9             0.3243     2.5841    -0.8093 N.am    
  10 S10            1.6241     4.8852    -0.2164 S.3     
  11 C11            0.2013     3.9529    -0.6716 C.2     
  12 N12           -0.9377     4.4873    -0.8801 N.2     
  13 C13           -1.3582     5.8655    -0.7984 C.3     
  14 C14           -0.2815     6.8290    -0.2780 C.3     
  15 C15            1.0991     6.5106    -0.8200 C.3     
  16 O16           -1.6434     6.1041     1.5486 O.3     
  17 C17           -2.4125     5.9756     0.3411 C.3     
  18 C18           -0.3496     6.6466     1.2465 C.3     
  19 C19           -0.1762     7.9987     1.9414 C.3     
  20 O20           -0.1243     7.8040     3.3561 O.3     
  21 C21            0.0369     9.0113     4.1034 C.3     
  22 C22            3.6838    10.9182     2.9585 C.ar    
  23 C23           -3.2465    11.6263     3.3108 C.ar    
  24 C24            0.1557     8.0985     8.2748 C.ar    
  25 C25            3.5625     9.5445     2.8628 C.ar    
  26 C26            2.3824     8.9274     3.2337 C.ar    
  27 C27            1.3235     9.6840     3.6996 C.ar    
  28 C28            1.4447    11.0577     3.7948 C.ar    
  29 C29            2.6249    11.6748     3.4244 C.ar    
  30 C30           -3.2244    10.8772     4.4723 C.ar    
  31 C31           -2.1620    10.0307     4.7287 C.ar    
  32 C32           -1.1215     9.9337     3.8237 C.ar    
  33 C33           -1.1434    10.6832     2.6624 C.ar    
  34 C34           -2.2060    11.5294     2.4058 C.ar    
  35 C35           -0.5720     7.2995     7.4128 C.ar    
  36 C36           -0.6108     7.5951     6.0630 C.ar    
  37 C37            0.0787     8.6893     5.5750 C.ar    
  38 C38            0.8068     9.4880     6.4369 C.ar    
  39 C39            0.8452     9.1927     7.7868 C.ar    
  40 C40           -1.9289     6.3321    -2.1128 C.ar    
  41 C41           -2.4050     7.6263    -2.2403 C.ar    
  42 C42           -2.9286     8.0547    -3.4477 C.ar    
  43 C43           -2.9757     7.1887    -4.5267 C.ar    
  44 C44           -2.4991     5.8953    -4.3970 C.ar    
  45 C45           -1.9715     5.4701    -3.1921 C.ar    
  46 F46           -3.4870     7.6053    -5.7058 F       
  47 F47           -2.3589     8.4702    -1.1863 F       
  48 H48            3.7412     0.4979    -0.2552 H       
  49 H49            3.9491    -1.9403    -0.5027 H       
  50 H50            1.9896    -3.2896    -1.1283 H       
  51 H51           -0.1883    -2.2109    -1.5086 H       
  52 H52           -0.4210     0.2245    -1.2545 H       
  53 H53           -0.4462     2.0506    -1.0593 H       
  54 H54           -0.5500     7.8537    -0.5351 H       
  55 H55            1.8058     7.2690    -0.4830 H       
  56 H56            1.0681     6.5011    -1.9095 H       
  57 H57           -3.0378     6.8564     0.1948 H       
  58 H58           -3.0267     5.0759     0.3771 H       
  59 H59            0.4281     5.9561     1.5729 H       
  60 H60            0.7500     8.4642     1.6045 H       
  61 H61           -1.0185     8.6449     1.6942 H       
  62 H62            4.6073    11.3999     2.6729 H       
  63 H63           -4.0787    12.2843     3.1084 H       
  64 H64            0.1824     7.8701     9.3300 H       
  65 H65            4.3896     8.9534     2.4984 H       
  66 H66            2.2874     7.8542     3.1583 H       
  67 H67            0.6173    11.6489     4.1586 H       
  68 H68            2.7196    12.7481     3.4988 H       
  69 H69           -4.0371    10.9532     5.1795 H       
  70 H70           -2.1444     9.4459     5.6365 H       
  71 H71           -0.3304    10.6078     1.9556 H       
  72 H72           -2.2232    12.1149     1.4985 H       
  73 H73           -1.1104     6.4443     7.7940 H       
  74 H74           -1.1788     6.9704     5.3895 H       
  75 H75            1.3458    10.3428     6.0556 H       
  76 H76            1.4141     9.8167     8.4601 H       
  77 H77           -3.3005     9.0637    -3.5479 H       
  78 H78           -2.5357     5.2195    -5.2386 H       
  79 H79           -1.5962     4.4623    -3.0929 H       
@<TRIPOS>BOND
   1    1    2 1
   2    1    8 2
   3    1    9 am
   4    2    3 ar
   5    2    7 ar
   6    3    4 ar
   7    3   48 1
   8    4    5 ar
   9    4   49 1
  10    5    6 ar
  11    5   50 1
  12    6    7 ar
  13    6   51 1
  14    7   52 1
  15    9   11 1
  16    9   53 1
  17   10   11 1
  18   10   15 1
  19   11   12 2
  20   12   13 1
  21   13   17 1
  22   13   40 1
  23   13   14 1
  24   14   15 1
  25   14   18 1
  26   14   54 1
  27   15   55 1
  28   15   56 1
  29   16   17 1
  30   16   18 1
  31   17   57 1
  32   17   58 1
  33   18   19 1
  34   18   59 1
  35   19   20 1
  36   19   60 1
  37   19   61 1
  38   20   21 1
  39   21   27 1
  40   21   32 1
  41   21   37 1
  42   22   25 ar
  43   22   29 ar
  44   22   62 1
  45   23   30 ar
  46   23   34 ar
  47   23   63 1
  48   24   35 ar
  49   24   39 ar
  50   24   64 1
  51   25   26 ar
  52   25   65 1
  53   26   27 ar
  54   26   66 1
  55   27   28 ar
  56   28   29 ar
  57   28   67 1
  58   29   68 1
  59   30   31 ar
  60   30   69 1
  61   31   32 ar
  62   31   70 1
  63   32   33 ar
  64   33   34 ar
  65   33   71 1
  66   34   72 1
  67   35   36 ar
  68   35   73 1
  69   36   37 ar
  70   36   74 1
  71   37   38 ar
  72   38   39 ar
  73   38   75 1
  74   39   76 1
  75   40   41 ar
  76   40   45 ar
  77   41   42 ar
  78   41   47 1
  79   42   43 ar
  80   42   77 1
  81   43   44 ar
  82   43   46 1
  83   44   45 ar
  84   44   78 1
  85   45   79 1

#	End of record

