#	Name: ASD03082353
#	Creating user name:	WinNT
#	Creation time:	15. 06. 2019 20:27

#	Modifying user name:	WinNT
#	Modification time:	15. 06. 2019 20:27

#	Program:	/corina/corina34_cracker 3.40 0067  02.08.2006

@<TRIPOS>MOLECULE
ASD03082353
  37   39    0    0    0
SMALL
NO_CHARGES


@<TRIPOS>ATOM
   1 C1            -3.4923    -0.5229    -0.0381 C.ar    
   2 C2            -2.3266    -0.0165     0.5215 C.ar    
   3 C3            -2.3551     1.1914     1.2071 C.ar    
   4 C4            -3.5419     1.8870     1.3313 C.ar    
   5 C5            -4.7038     1.3817     0.7737 C.ar    
   6 C6            -4.6789     0.1765     0.0884 C.ar    
   7 F7            -5.8138    -0.3149    -0.4555 F       
   8 F8            -5.8635     2.0636     0.8975 F       
   9 N9            -1.1258    -0.7217     0.3955 N.pl3   
  10 C10           -1.1419    -2.1160     0.2843 C.2     
  11 C11           -0.0268    -2.9364     0.0415 C.2     
  12 N12           -2.2001    -2.8846     0.3941 N.2     
  13 N13           -1.7954    -4.2143     0.2195 N.pl3   
  14 C14           -0.4539    -4.2184     0.0042 C.2     
  15 C15           -2.6247    -5.3390     0.2636 C.ar    
  16 C16           -2.2270    -6.4944     0.9334 C.ar    
  17 C17           -3.8730    -5.3315    -0.3563 C.ar    
  18 C18           -4.6615    -6.4617    -0.2898 C.ar    
  19 N19           -4.2469    -7.5390     0.3498 N.ar    
  20 C20           -3.0747    -7.5832     0.9537 C.ar    
  21 C21           -6.0134    -6.4659    -0.9556 C.3     
  22 H22           -2.7725    -8.4846     1.4661 H       
  23 C23            0.4041    -5.4342    -0.2340 C.3     
  24 C24            1.0350    -5.8450     1.0309 C.1     
  25 N25            1.5219    -6.1620     2.0070 N.1     
  26 H26           -3.4714    -1.4596    -0.5753 H       
  27 H27           -1.4495     1.5864     1.6432 H       
  28 H28           -3.5635     2.8260     1.8644 H       
  29 H29           -0.2816    -0.2441     0.3853 H       
  30 H30            0.9913    -2.6016    -0.0920 H       
  31 H31           -1.2686    -6.5373     1.4294 H       
  32 H32           -4.2185    -4.4531    -0.8811 H       
  33 H33           -5.9115    -6.8164    -1.9827 H       
  34 H34           -6.6849    -7.1291    -0.4103 H       
  35 H35           -6.4217    -5.4552    -0.9554 H       
  36 H36           -0.2152    -6.2475    -0.6121 H       
  37 H37            1.1769    -5.1960    -0.9649 H       
@<TRIPOS>BOND
   1    1    2 ar
   2    1    6 ar
   3    1   26 1
   4    2    3 ar
   5    2    9 1
   6    3    4 ar
   7    3   27 1
   8    4    5 ar
   9    4   28 1
  10    5    6 ar
  11    5    8 1
  12    6    7 1
  13    9   10 1
  14    9   29 1
  15   10   11 1
  16   10   12 2
  17   11   14 2
  18   11   30 1
  19   12   13 1
  20   13   14 1
  21   13   15 1
  22   14   23 1
  23   15   16 ar
  24   15   17 ar
  25   16   20 ar
  26   16   31 1
  27   17   18 ar
  28   17   32 1
  29   18   19 ar
  30   18   21 1
  31   19   20 ar
  32   20   22 1
  33   21   33 1
  34   21   34 1
  35   21   35 1
  36   23   24 1
  37   23   36 1
  38   23   37 1
  39   24   25 3

#	End of record

