#	Name: ASD01911812
#	Creating user name:	WinNT
#	Creation time:	15. 06. 2019 19:58

#	Modifying user name:	WinNT
#	Modification time:	15. 06. 2019 19:58

#	Program:	/corina/corina34_cracker 3.40 0067  02.08.2006

@<TRIPOS>MOLECULE
ASD01911812
  30   32    0    0    0
SMALL
NO_CHARGES


@<TRIPOS>ATOM
   1 C1             0.1445     0.8400    -1.0243 C.2     
   2 N2             0.0464    -0.3394    -0.3307 N.pl3   
   3 C3             1.2106    -1.0285    -0.0063 C.2     
   4 C4             2.4541    -0.4794    -0.4091 C.2     
   5 C5             2.4533     0.6918    -1.0919 C.2     
   6 N6             1.3011     1.3161    -1.3785 N.2     
   7 C7             0.8719    -2.1581     0.6749 C.2     
   8 C8            -0.5428    -2.1788     0.7810 C.2     
   9 C9            -1.0192    -1.0353     0.1460 C.2     
  10 C10           -1.3516    -3.2112     1.4368 C.2     
  11 O11           -1.6269    -3.1095     2.6170 O.2     
  12 O12           -1.7900    -4.2736     0.7312 O.3     
  13 N13           -2.3487    -0.6700     0.0218 N.pl3   
  14 C14           -2.8395     0.4333     0.7273 C.ar    
  15 C15           -4.1904     0.7601     0.6589 C.ar    
  16 C16           -4.6715     1.8511     1.3582 C.ar    
  17 C17           -3.8109     2.6170     2.1249 C.ar    
  18 C18           -2.4679     2.2942     2.1939 C.ar    
  19 C19           -1.9812     1.2016     1.5021 C.ar    
  20 I20           -4.5442     4.2697     3.1832 I       
  21 F21           -5.0303     0.0126    -0.0901 F       
  22 Cl22           1.9680    -3.3518     1.2975 Cl      
  23 H23           -0.7542     1.3795    -1.2844 H       
  24 H24            3.3811    -0.9826    -0.1769 H       
  25 H25            3.3899     1.1269    -1.4079 H       
  26 H26           -2.3198    -4.9281     1.2067 H       
  27 H27           -2.9399    -1.1792    -0.5545 H       
  28 H28           -5.7196     2.1063     1.3058 H       
  29 H29           -1.7992     2.8947     2.7928 H       
  30 H30           -0.9331     0.9480     1.5608 H       
@<TRIPOS>BOND
   1    1    2 1
   2    1    6 2
   3    1   23 1
   4    2    3 1
   5    2    9 1
   6    3    4 1
   7    3    7 2
   8    4    5 2
   9    4   24 1
  10    5    6 1
  11    5   25 1
  12    7    8 1
  13    7   22 1
  14    8    9 2
  15    8   10 1
  16    9   13 1
  17   10   11 2
  18   10   12 1
  19   12   26 1
  20   13   14 1
  21   13   27 1
  22   14   15 ar
  23   14   19 ar
  24   15   16 ar
  25   15   21 1
  26   16   17 ar
  27   16   28 1
  28   17   18 ar
  29   17   20 1
  30   18   19 ar
  31   18   29 1
  32   19   30 1

#	End of record

