#	Name: ASD01208004
#	Creating user name:	WinNT
#	Creation time:	15. 06. 2019 19:09

#	Modifying user name:	WinNT
#	Modification time:	15. 06. 2019 19:09

#	Program:	/corina/corina34_cracker 3.40 0067  02.08.2006

@<TRIPOS>MOLECULE
ASD01208004
  60   63    0    0    0
SMALL
NO_CHARGES


@<TRIPOS>ATOM
   1 C1            -0.0843     1.4340     0.0275 C.ar    
   2 C2             0.0184     0.0511    -0.0131 C.ar    
   3 C3            -1.1247    -0.7353     0.0265 C.ar    
   4 C4            -2.3734    -0.1418     0.1069 C.ar    
   5 C5            -2.4812     1.2493     0.1480 C.ar    
   6 C6            -1.3289     2.0358     0.1137 C.ar    
   7 C7            -3.8113     1.8871     0.2338 C.2     
   8 C8            -4.0513     3.2303     0.2801 C.2     
   9 N9            -5.0139     1.2309     0.2744 N.pl3   
  10 C10           -6.0177     2.1653     0.3522 C.2     
  11 C11           -5.4346     3.4136     0.3568 C.2     
  12 C12           -7.4597     1.8834     0.4158 C.2     
  13 S13           -8.7352     3.0946     0.5154 S.3     
  14 N14           -8.0008     0.6957     0.4018 N.2     
  15 C15           -9.3111     0.6375     0.4657 C.2     
  16 C16           -9.9446     1.8128     0.5365 C.2     
  17 O17            1.0381     2.1992    -0.0116 O.3     
  18 C18            0.8561     3.6143    -0.0908 C.3     
  19 C19            2.0902     4.2522    -0.7320 C.3     
  20 O20            3.2213     4.0636     0.1208 O.3     
  21 C21            0.6609     4.1829     1.3162 C.3     
  22 O22           -1.0185    -2.0894    -0.0140 O.3     
  23 C23           -1.4874    -2.7334    -1.1149 C.ar    
  24 C24           -1.9382    -2.0054    -2.2067 C.ar    
  25 C25           -1.5109    -4.1203    -1.1514 C.ar    
  26 C26           -1.9877    -4.7726    -2.2718 C.ar    
  27 C27           -2.4408    -4.0446    -3.3566 C.ar    
  28 C28           -2.4140    -2.6625    -3.3247 C.ar    
  29 S29           -3.0473    -4.8797    -4.7847 S.o2    
  30 C30           -4.8218    -5.0853    -4.4694 C.3     
  31 O31           -2.8327    -3.9597    -5.8462 O.2     
  32 O32           -2.3876    -6.1381    -4.7613 O.2     
  33 C33            4.4328     4.6250    -0.3881 C.3     
  34 C34          -11.4367     2.0080     0.6180 C.3     
  35 H35            0.9906    -0.4150    -0.0762 H       
  36 H36           -3.2624    -0.7543     0.1374 H       
  37 H37           -1.4079     3.1124     0.1456 H       
  38 H38           -3.3056     4.0113     0.2613 H       
  39 H39           -5.1357     0.2689     0.2514 H       
  40 H40           -5.9517     4.3603     0.4098 H       
  41 H41           -9.8442    -0.3017     0.4599 H       
  42 H42           -0.0229     3.8343    -0.6967 H       
  43 H43            2.2810     3.7838    -1.6975 H       
  44 H44            1.9158     5.3187    -0.8736 H       
  45 H45            0.5221     5.2623     1.2558 H       
  46 H46           -0.2182     3.7285     1.7730 H       
  47 H47            1.5399     3.9629     1.9221 H       
  48 H48           -1.9175    -0.9259    -2.1822 H       
  49 H49           -1.1565    -4.6894    -0.3046 H       
  50 H50           -2.0063    -5.8520    -2.3007 H       
  51 H51           -2.7688    -2.0963    -4.1731 H       
  52 H52           -5.2842    -4.1064    -4.3434 H       
  53 H53           -5.2834    -5.5995    -5.3124 H       
  54 H54           -4.9640    -5.6737    -3.5629 H       
  55 H55            5.2433     4.4396     0.3167 H       
  56 H56            4.6723     4.1644    -1.3465 H       
  57 H57            4.3070     5.6994    -0.5226 H       
  58 H58          -11.7449     2.0211     1.6634 H       
  59 H59          -11.7056     2.9541     0.1481 H       
  60 H60          -11.9389     1.1901     0.1013 H       
@<TRIPOS>BOND
   1    1    2 ar
   2    1   17 1
   3    1    6 ar
   4    2    3 ar
   5    2   35 1
   6    3    4 ar
   7    3   22 1
   8    4    5 ar
   9    4   36 1
  10    5    6 ar
  11    5    7 1
  12    6   37 1
  13    7    8 2
  14    7    9 1
  15    8   11 1
  16    8   38 1
  17    9   10 1
  18    9   39 1
  19   10   11 2
  20   10   12 1
  21   11   40 1
  22   12   13 1
  23   12   14 2
  24   13   16 1
  25   14   15 1
  26   15   16 2
  27   15   41 1
  28   16   34 1
  29   17   18 1
  30   18   19 1
  31   18   21 1
  32   18   42 1
  33   19   20 1
  34   19   43 1
  35   19   44 1
  36   20   33 1
  37   21   45 1
  38   21   46 1
  39   21   47 1
  40   22   23 1
  41   23   24 ar
  42   23   25 ar
  43   24   28 ar
  44   24   48 1
  45   25   26 ar
  46   25   49 1
  47   26   27 ar
  48   26   50 1
  49   27   28 ar
  50   27   29 1
  51   28   51 1
  52   29   30 1
  53   29   31 2
  54   29   32 2
  55   30   52 1
  56   30   53 1
  57   30   54 1
  58   33   55 1
  59   33   56 1
  60   33   57 1
  61   34   58 1
  62   34   59 1
  63   34   60 1

#	End of record

