#	Name: ASD08070126
#	Creating user name:	WinNT
#	Creation time:	15. 06. 2019 21:14

#	Modifying user name:	WinNT
#	Modification time:	15. 06. 2019 21:14

#	Program:	/corina/corina34_cracker 3.40 0067  02.08.2006

@<TRIPOS>MOLECULE
ASD08070126
  41   41    0    0    0
SMALL
NO_CHARGES


@<TRIPOS>ATOM
   1 C1             0.1255     1.3746    -0.6193 C.ar    
   2 C2             0.1462    -0.0076    -0.6098 C.ar    
   3 C3             1.1680     2.0898    -0.0496 C.ar    
   4 C4             2.2347     1.4197     0.5314 C.ar    
   5 C5             1.2099    -0.6817    -0.0299 C.ar    
   6 N6             1.2304    -2.0852    -0.0195 N.am    
   7 O7            -0.9674    -2.1857     0.2858 O.2     
   8 C8             0.0779    -2.7752     0.0900 C.2     
   9 N9             0.0840    -4.1186    -0.0176 N.am    
  10 C10            2.2583     0.0352     0.5424 C.ar    
  11 O11            3.3030    -0.6235     1.1114 O.3     
  12 C12            4.3422     0.1761     1.6794 C.3     
  13 C13           -1.1688    -4.8687     0.1015 C.3     
  14 C14           -1.0385    -6.2004    -0.6405 C.3     
  15 C15           -1.4655    -5.1349     1.5787 C.3     
  16 C16           -1.7190    -3.8070     2.2953 C.3     
  17 C17           -0.8661    -5.9353    -2.1375 C.3     
  18 O18            1.1449     3.4493    -0.0608 O.3     
  19 C19            0.0165     4.0739    -0.6761 C.3     
  20 H20           -0.7019     1.8982    -1.0750 H       
  21 H21           -0.6668    -0.5626    -1.0540 H       
  22 H22            3.0464     1.9775     0.9745 H       
  23 H23            2.0741    -2.5584    -0.0912 H       
  24 H24            0.9178    -4.5889    -0.1738 H       
  25 H25            3.9276     0.8042     2.4678 H       
  26 H26            5.1118    -0.4723     2.0983 H       
  27 H27            4.7800     0.8063     0.9053 H       
  28 H28           -1.9825    -4.2884    -0.3337 H       
  29 H29           -0.1703    -6.7420    -0.2651 H       
  30 H30           -1.9366    -6.7962    -0.4781 H       
  31 H31           -2.3487    -5.7680     1.6635 H       
  32 H32           -0.6130    -5.6374     2.0357 H       
  33 H33           -1.9304    -3.9967     3.3476 H       
  34 H34           -0.8358    -3.1739     2.2104 H       
  35 H35           -2.5715    -3.3046     1.8383 H       
  36 H36           -1.7343    -5.3937    -2.5129 H       
  37 H37            0.0321    -5.3394    -2.2999 H       
  38 H38           -0.7732    -6.8840    -2.6661 H       
  39 H39           -0.0410     3.7713    -1.7217 H       
  40 H40           -0.8937     3.7698    -0.1592 H       
  41 H41            0.1235     5.1570    -0.6166 H       
@<TRIPOS>BOND
   1    1    2 ar
   2    1    3 ar
   3    1   20 1
   4    2    5 ar
   5    2   21 1
   6    3    4 ar
   7    3   18 1
   8    4   10 ar
   9    4   22 1
  10    5    6 1
  11    5   10 ar
  12    6    8 am
  13    6   23 1
  14    7    8 2
  15    8    9 am
  16    9   13 1
  17    9   24 1
  18   10   11 1
  19   11   12 1
  20   12   25 1
  21   12   26 1
  22   12   27 1
  23   13   14 1
  24   13   15 1
  25   13   28 1
  26   14   17 1
  27   14   29 1
  28   14   30 1
  29   15   16 1
  30   15   31 1
  31   15   32 1
  32   16   33 1
  33   16   34 1
  34   16   35 1
  35   17   36 1
  36   17   37 1
  37   17   38 1
  38   18   19 1
  39   19   39 1
  40   19   40 1
  41   19   41 1

#	End of record

