#	Name: ASD02408158
#	Creating user name:	WinNT
#	Creation time:	15. 06. 2019 20:21

#	Modifying user name:	WinNT
#	Modification time:	15. 06. 2019 20:21

#	Program:	/corina/corina34_cracker 3.40 0067  02.08.2006

@<TRIPOS>MOLECULE
ASD02408158
  44   46    0    0    0
SMALL
NO_CHARGES


@<TRIPOS>ATOM
   1 O1            -0.0164     1.3548     0.0095 O.3     
   2 C2             0.0021    -0.0041     0.0020 C.ar    
   3 C3             1.2119    -0.6824    -0.0132 C.ar    
   4 C4            -1.1892    -0.7153     0.0154 C.ar    
   5 C5            -1.1678    -2.0963     0.0082 C.ar    
   6 C6             0.0396    -2.7702    -0.0122 C.ar    
   7 C7             1.2280    -2.0639    -0.0203 C.ar    
   8 C8            -2.5054     0.0184     0.0382 C.3     
   9 C9            -2.9041     0.3786    -1.3698 C.2     
  10 N10           -4.0585     1.0436    -1.5697 N.am    
  11 N11           -2.1168     0.0406    -2.3546 N.2     
  12 C12           -2.4196     0.3346    -3.6255 C.2     
  13 C13           -3.6116     1.0226    -3.9064 C.2     
  14 C14           -4.4462     1.3825    -2.8172 C.2     
  15 N15           -1.5736    -0.0321    -4.6432 N.pl3   
  16 C16           -0.3321    -0.7490    -4.3413 C.3     
  17 O17           -5.4919     1.9804    -3.0041 O.2     
  18 C18            1.2479     2.0208     0.0010 C.3     
  19 C19            0.1108    -1.5734    -5.5628 C.3     
  20 C20            1.4987    -1.0402    -5.9744 C.3     
  21 C21            2.0579    -0.3980    -4.6806 C.3     
  22 C22            0.8020     0.2563    -4.0534 C.3     
  23 C23           -3.9711     1.3555    -5.2519 C.1     
  24 N24           -4.2563     1.6196    -6.3194 N.1     
  25 H25            2.1406    -0.1311    -0.0198 H       
  26 H26           -2.0948    -2.6504     0.0190 H       
  27 H27            0.0542    -3.8501    -0.0178 H       
  28 H28            2.1697    -2.5925    -0.0362 H       
  29 H29           -3.2699    -0.6205     0.4801 H       
  30 H30           -2.4043     0.9275     0.6310 H       
  31 H31           -4.6153     1.2803    -0.8115 H       
  32 H32           -1.7980     0.1835    -5.5619 H       
  33 H33           -0.4788    -1.4037    -3.4823 H       
  34 H34            1.8173     1.7308     0.8840 H       
  35 H35            1.8003     1.7403    -0.8958 H       
  36 H36            1.0905     3.0993     0.0083 H       
  37 H37            0.1800    -2.6280    -5.2963 H       
  38 H38           -0.5978    -1.4401    -6.3802 H       
  39 H39            2.1399    -1.8585    -6.3021 H       
  40 H40            1.4019    -0.2917    -6.7609 H       
  41 H41            2.4687    -1.1595    -4.0177 H       
  42 H42            2.8090     0.3558    -4.9170 H       
  43 H43            0.5927     1.2142    -4.5296 H       
  44 H44            0.9347     0.3842    -2.9791 H       
@<TRIPOS>BOND
   1    1    2 1
   2    1   18 1
   3    2    3 ar
   4    2    4 ar
   5    3    7 ar
   6    3   25 1
   7    4    5 ar
   8    4    8 1
   9    5    6 ar
  10    5   26 1
  11    6    7 ar
  12    6   27 1
  13    7   28 1
  14    8    9 1
  15    8   29 1
  16    8   30 1
  17    9   10 1
  18    9   11 2
  19   10   14 am
  20   10   31 1
  21   11   12 1
  22   12   13 2
  23   12   15 1
  24   13   14 1
  25   13   23 1
  26   14   17 2
  27   15   16 1
  28   15   32 1
  29   16   19 1
  30   16   22 1
  31   16   33 1
  32   18   34 1
  33   18   35 1
  34   18   36 1
  35   19   20 1
  36   19   37 1
  37   19   38 1
  38   20   21 1
  39   20   39 1
  40   20   40 1
  41   21   22 1
  42   21   41 1
  43   21   42 1
  44   22   43 1
  45   22   44 1
  46   23   24 3

#	End of record

