#	Name: ASD01911606
#	Creating user name:	WinNT
#	Creation time:	15. 06. 2019 19:58

#	Modifying user name:	WinNT
#	Modification time:	15. 06. 2019 19:58

#	Program:	/corina/corina34_cracker 3.40 0067  02.08.2006

@<TRIPOS>MOLECULE
ASD01911606
  37   39    0    0    0
SMALL
NO_CHARGES


@<TRIPOS>ATOM
   1 N1            -0.0083     1.2520    -0.4865 N.am    
   2 C2             0.0021    -0.0041     0.0020 C.2     
   3 C3            -1.2506    -0.7543     0.1205 C.2     
   4 C4            -1.3861    -2.1134     0.0310 C.2     
   5 S5            -2.8470    -0.0658     0.4110 S.3     
   6 C6            -3.5482    -1.6811     0.3759 C.2     
   7 N7            -2.6014    -2.5625     0.1683 N.2     
   8 C8            -4.9366    -1.9843     0.5521 C.1     
   9 C9            -6.0748    -2.2329     0.6966 C.1     
  10 C10           -7.4632    -2.5361     0.8727 C.ar    
  11 C11           -7.9052    -3.8632     0.8244 C.ar    
  12 C12           -9.2451    -4.1465     0.9952 C.ar    
  13 C13          -10.1499    -3.1224     1.2131 C.ar    
  14 C14           -9.7200    -1.8078     1.2616 C.ar    
  15 C15           -8.3836    -1.5085     1.0996 C.ar    
  16 O16            1.0523    -0.5151     0.3448 O.2     
  17 C17           -1.2436     1.8343    -1.0284 C.3     
  18 C18            1.2141     2.0672    -0.4818 C.3     
  19 C19            1.4697     2.5809    -1.9022 C.3     
  20 C20            0.2257     3.3163    -2.4060 C.3     
  21 C21           -0.9660     2.3500    -2.4439 C.3     
  22 Cl22          -6.7715    -5.1490     0.5500 Cl      
  23 H23           -0.5444    -2.7678    -0.1417 H       
  24 H24           -9.5883    -5.1699     0.9583 H       
  25 H25          -11.1972    -3.3503     1.3457 H       
  26 H26          -10.4327    -1.0143     1.4314 H       
  27 H27           -8.0503    -0.4820     1.1378 H       
  28 H28           -2.0221     1.0722    -1.0633 H       
  29 H29           -1.5665     2.6606    -0.3952 H       
  30 H30            1.0872     2.9121     0.1951 H       
  31 H31            2.0577     1.4588    -0.1559 H       
  32 H32            2.3184     3.2647    -1.8945 H       
  33 H33            1.6860     1.7391    -2.5600 H       
  34 H34           -0.0045     4.1429    -1.7338 H       
  35 H35            0.4137     3.7041    -3.4071 H       
  36 H36           -0.7309     1.5077    -3.0946 H       
  37 H37           -1.8445     2.8707    -2.8251 H       
@<TRIPOS>BOND
   1    1    2 am
   2    1   18 1
   3    1   17 1
   4    2    3 1
   5    2   16 2
   6    3    4 2
   7    3    5 1
   8    4    7 1
   9    4   23 1
  10    5    6 1
  11    6    7 2
  12    6    8 1
  13    8    9 3
  14    9   10 1
  15   10   11 ar
  16   10   15 ar
  17   11   12 ar
  18   11   22 1
  19   12   13 ar
  20   12   24 1
  21   13   14 ar
  22   13   25 1
  23   14   15 ar
  24   14   26 1
  25   15   27 1
  26   17   21 1
  27   17   28 1
  28   17   29 1
  29   18   19 1
  30   18   30 1
  31   18   31 1
  32   19   20 1
  33   19   32 1
  34   19   33 1
  35   20   21 1
  36   20   34 1
  37   20   35 1
  38   21   36 1
  39   21   37 1

#	End of record

