#	Name: ASD02198558
#	Creating user name:	WinNT
#	Creation time:	15. 06. 2019 20:19

#	Modifying user name:	WinNT
#	Modification time:	15. 06. 2019 20:19

#	Program:	/corina/corina34_cracker 3.40 0067  02.08.2006

@<TRIPOS>MOLECULE
ASD02198558
  45   49    0    0    0
SMALL
NO_CHARGES


@<TRIPOS>ATOM
   1 C1             0.0072     1.5098     0.1333 C.2     
   2 C2             0.0745     0.1698    -0.0949 C.2     
   3 N3            -1.0518    -0.5605    -0.2642 N.pl3   
   4 N4            -2.2298    -0.0571    -0.2233 N.2     
   5 C5            -2.4375     1.2259    -0.0103 C.2     
   6 C6            -1.2791     2.1067     0.1921 C.2     
   7 C7            -0.9242    -1.9344    -0.4960 C.ar    
   8 C8            -0.7934    -3.7808    -2.0276 C.ar    
   9 C9            -0.6713    -4.6576    -0.9608 C.ar    
  10 C10           -0.6814    -4.1709     0.3447 C.ar    
  11 C11           -0.8077    -2.8118     0.5744 C.ar    
  12 C12           -3.8107     1.7688     0.0293 C.2     
  13 N13           -4.3729     2.4814     1.0509 N.pl3   
  14 N14           -5.6845     2.8000     0.6775 N.2     
  15 C15           -5.9147     2.3073    -0.5134 C.2     
  16 C16           -4.7638     1.6572    -0.9591 C.2     
  17 C17           -3.7491     2.8305     2.2554 C.ar    
  18 C18           -2.9556     1.9059     2.9216 C.ar    
  19 O19           -1.4171     3.3047     0.3938 O.2     
  20 C20           -3.9184     4.1039     2.7830 C.ar    
  21 C21           -3.3020     4.4451     3.9710 C.ar    
  22 C22           -2.5170     3.5202     4.6348 C.ar    
  23 C23           -2.3419     2.2532     4.1091 C.ar    
  24 C24           -0.9196    -2.4231    -1.7986 C.ar    
  25 F25           -1.0389    -1.5708    -2.8401 F       
  26 O26            1.1345     2.2511     0.3050 O.3     
  27 C27            2.3829     1.5592     0.2344 C.3     
  28 O28           -0.5364    -6.0156    -0.9186 O.3     
  29 C29           -0.0483    -6.3129     0.4029 C.3     
  30 O30           -0.5480    -5.2241     1.2038 O.3     
  31 F31           -0.5662    -7.5311     0.8557 F       
  32 F32            1.3505    -6.3366     0.4164 F       
  33 H33            1.0379    -0.3160    -0.1418 H       
  34 H34           -0.7855    -4.1584    -3.0394 H       
  35 H35           -0.8153    -2.4336     1.5860 H       
  36 H36           -6.8413     2.3930    -1.0616 H       
  37 H37           -4.6437     1.1515    -1.9058 H       
  38 H38           -2.8188     0.9162     2.5116 H       
  39 H39           -4.5310     4.8267     2.2648 H       
  40 H40           -3.4329     5.4353     4.3816 H       
  41 H41           -2.0361     3.7894     5.5636 H       
  42 H42           -1.7283     1.5331     4.6299 H       
  43 H43            2.4168     0.7913     1.0072 H       
  44 H44            2.4851     1.0933    -0.7456 H       
  45 H45            3.1988     2.2655     0.3879 H       
@<TRIPOS>BOND
   1    1    2 2
   2    1   26 1
   3    1    6 1
   4    2    3 1
   5    2   33 1
   6    3    4 1
   7    3    7 1
   8    4    5 2
   9    5    6 1
  10    5   12 1
  11    6   19 2
  12    7   24 ar
  13    7   11 ar
  14    8    9 ar
  15    8   24 ar
  16    8   34 1
  17    9   10 ar
  18    9   28 1
  19   10   11 ar
  20   10   30 1
  21   11   35 1
  22   12   13 1
  23   12   16 2
  24   13   14 1
  25   13   17 1
  26   14   15 2
  27   15   16 1
  28   15   36 1
  29   16   37 1
  30   17   20 ar
  31   17   18 ar
  32   18   23 ar
  33   18   38 1
  34   20   21 ar
  35   20   39 1
  36   21   22 ar
  37   21   40 1
  38   22   23 ar
  39   22   41 1
  40   23   42 1
  41   24   25 1
  42   26   27 1
  43   27   43 1
  44   27   44 1
  45   27   45 1
  46   28   29 1
  47   29   30 1
  48   29   31 1
  49   29   32 1

#	End of record

