#	Name: ASD01180066
#	Creating user name:	WinNT
#	Creation time:	15. 06. 2019 19:06

#	Modifying user name:	WinNT
#	Modification time:	15. 06. 2019 19:06

#	Program:	/corina/corina34_cracker 3.40 0067  02.08.2006

@<TRIPOS>MOLECULE
ASD01180066
  63   65    0    0    0
SMALL
NO_CHARGES


@<TRIPOS>ATOM
   1 C1            -0.0184     1.5028     0.0103 C.2     
   2 C2             0.0021    -0.0041     0.0020 C.3     
   3 C3             1.4513    -0.4944    -0.0145 C.3     
   4 O4             1.0197     2.1211     0.0037 O.2     
   5 O5            -1.1898     2.1580     0.0194 O.3     
   6 C6             2.6473    -2.6171    -0.0373 C.2     
   7 C7             2.6674    -4.0954    -0.0454 C.ar    
   8 C8             3.8837    -4.7799    -0.0607 C.ar    
   9 C9             3.8954    -6.1594    -0.0677 C.ar    
  10 C10            2.7049    -6.8644    -0.0601 C.ar    
  11 C11            1.4958    -6.1920    -0.0450 C.ar    
  12 C12            1.4701    -4.8127    -0.0320 C.ar    
  13 O13            3.6916    -1.9951    -0.0439 O.2     
  14 N14            1.4712    -1.9592    -0.0225 N.am    
  15 C15            2.7254    -8.3712    -0.0689 C.3     
  16 C16            2.4957    -8.8926     1.3511 C.3     
  17 C17            2.6401   -10.4157     1.3646 C.3     
  18 C18            2.4104   -10.9372     2.7846 C.3     
  19 N19            1.6654    -8.8688    -0.9493 N.pl3   
  20 N20            2.8487   -10.8507    -1.2861 N.ar    
  21 C21            1.7802   -10.1214    -1.5334 C.ar    
  22 C22            0.7556   -10.5819    -2.3732 C.ar    
  23 C23            0.8543   -11.8102    -2.9534 C.ar    
  24 C24            2.0008   -12.5861    -2.6846 C.ar    
  25 C25            2.1671   -13.8594    -3.2500 C.ar    
  26 C26            3.2883   -14.5803    -2.9687 C.ar    
  27 C27            4.2726   -14.0700    -2.1263 C.ar    
  28 C28            4.1431   -12.8380    -1.5609 C.ar    
  29 C29            3.0008   -12.0648    -1.8278 C.ar    
  30 C30           -0.4527    -9.7195    -2.6326 C.3     
  31 C31           -1.1335     3.6089     0.0270 C.3     
  32 C32           -2.5551     4.1744     0.0369 C.3     
  33 H33           -0.4983    -0.3791     0.8948 H       
  34 H34           -0.5153    -0.3696    -0.8850 H       
  35 H35            1.9516    -0.1193    -0.9073 H       
  36 H36            1.9686    -0.1289     0.8726 H       
  37 H37            4.8137    -4.2307    -0.0674 H       
  38 H38            4.8359    -6.6902    -0.0796 H       
  39 H39            0.5700    -6.7482    -0.0391 H       
  40 H40            0.5257    -4.2891    -0.0157 H       
  41 H41            0.6378    -2.4556    -0.0172 H       
  42 H42            3.6924    -8.7193    -0.4318 H       
  43 H43            3.2317    -8.4519     2.0234 H       
  44 H44            1.4932    -8.6197     1.6806 H       
  45 H45            1.9040   -10.8565     0.6922 H       
  46 H46            3.6426   -10.6886     1.0351 H       
  47 H47            2.5132   -12.0223     2.7942 H       
  48 H48            3.1464   -10.4964     3.4570 H       
  49 H49            1.4079   -10.6643     3.1141 H       
  50 H50            0.8833    -8.3222    -1.1236 H       
  51 H51            0.0745   -12.1805    -3.6024 H       
  52 H52            1.4101   -14.2659    -3.9043 H       
  53 H53            3.4152   -15.5604    -3.4045 H       
  54 H54            5.1524   -14.6608    -1.9178 H       
  55 H55            4.9155   -12.4568    -0.9094 H       
  56 H56           -0.2701    -9.0909    -3.5041 H       
  57 H57           -1.3192   -10.3543    -2.8176 H       
  58 H58           -0.6428    -9.0895    -1.7636 H       
  59 H59           -0.6017     3.9472     0.9164 H       
  60 H60           -0.6102     3.9569    -0.8636 H       
  61 H61           -2.5128     5.2636     0.0426 H       
  62 H62           -3.0869     3.8361    -0.8525 H       
  63 H63           -3.0784     3.8265     0.9275 H       
@<TRIPOS>BOND
   1    1    2 1
   2    1    4 2
   3    1    5 1
   4    2    3 1
   5    2   33 1
   6    2   34 1
   7    3   14 1
   8    3   35 1
   9    3   36 1
  10    5   31 1
  11    6    7 1
  12    6   13 2
  13    6   14 am
  14    7    8 ar
  15    7   12 ar
  16    8    9 ar
  17    8   37 1
  18    9   10 ar
  19    9   38 1
  20   10   11 ar
  21   10   15 1
  22   11   12 ar
  23   11   39 1
  24   12   40 1
  25   14   41 1
  26   15   16 1
  27   15   19 1
  28   15   42 1
  29   16   17 1
  30   16   43 1
  31   16   44 1
  32   17   18 1
  33   17   45 1
  34   17   46 1
  35   18   47 1
  36   18   48 1
  37   18   49 1
  38   19   21 1
  39   19   50 1
  40   20   21 ar
  41   20   29 ar
  42   21   22 ar
  43   22   23 ar
  44   22   30 1
  45   23   24 ar
  46   23   51 1
  47   24   25 ar
  48   24   29 ar
  49   25   26 ar
  50   25   52 1
  51   26   27 ar
  52   26   53 1
  53   27   28 ar
  54   27   54 1
  55   28   29 ar
  56   28   55 1
  57   30   56 1
  58   30   57 1
  59   30   58 1
  60   31   32 1
  61   31   59 1
  62   31   60 1
  63   32   61 1
  64   32   62 1
  65   32   63 1

#	End of record

