#	Name: ASD01412059
#	Creating user name:	WinNT
#	Creation time:	15. 06. 2019 19:20

#	Modifying user name:	WinNT
#	Modification time:	15. 06. 2019 19:20

#	Program:	/corina/corina34_cracker 3.40 0067  02.08.2006

@<TRIPOS>MOLECULE
ASD01412059
  58   61    0    0    0
SMALL
NO_CHARGES


@<TRIPOS>ATOM
   1 C1            -0.0169     1.3939     0.0097 C.ar    
   2 C2             0.0021    -0.0041     0.0020 C.ar    
   3 C3            -1.1788    -0.7226     0.0099 C.ar    
   4 C4            -2.3967    -0.0531     0.0255 C.ar    
   5 C5            -2.4150     1.3537     0.0333 C.ar    
   6 C6            -1.2173     2.0719     0.0306 C.ar    
   7 N7            -3.5879    -0.7471     0.0332 N.pl3   
   8 C8            -4.7825    -0.1074     0.0480 C.2     
   9 C9            -4.8845     1.2374     0.0558 C.2     
  10 C10           -3.7180     2.0380     0.0495 C.2     
  11 O11           -3.7898     3.2563     0.0567 O.2     
  12 C12           -3.5617    -2.2119     0.0245 C.3     
  13 C13           -3.5389    -2.7223     1.4422 C.ar    
  14 C14           -4.7256    -2.9778     2.1038 C.ar    
  15 C15           -4.7053    -3.4459     3.4041 C.ar    
  16 C16           -3.4970    -3.6588     4.0436 C.ar    
  17 C17           -2.3098    -3.4029     3.3810 C.ar    
  18 C18           -2.3313    -2.9401     2.0788 C.ar    
  19 Cl19          -3.4708    -4.2462     5.6770 Cl      
  20 S20           -6.4735     1.9987     0.0739 S.o2    
  21 C21           -6.5466     2.8556     1.6711 C.3     
  22 C22           -7.8955     3.5645     1.8082 C.3     
  23 C23           -7.9563     4.2764     3.1351 C.ar    
  24 C24           -7.5198     5.5840     3.2383 C.ar    
  25 C25           -7.5753     6.2374     4.4549 C.ar    
  26 C26           -8.0678     5.5825     5.5697 C.ar    
  27 C27           -8.5045     4.2739     5.4658 C.ar    
  28 C28           -8.4538     3.6233     4.2474 C.ar    
  29 Cl29          -8.1373     6.4024     7.0983 Cl      
  30 O30           -6.4252     2.9359    -0.9930 O.2     
  31 O31           -7.3846     0.9085     0.0508 O.2     
  32 O32            1.1905    -0.6615    -0.0137 O.3     
  33 C33            1.1418    -2.0897    -0.0209 C.3     
  34 O34            1.1532     2.0876     0.0023 O.3     
  35 C35            1.0620     3.5137     0.0108 C.3     
  36 H36           -1.1550    -1.8023     0.0035 H       
  37 H37           -1.2312     3.1518     0.0365 H       
  38 H38           -5.6873    -0.6970     0.0534 H       
  39 H39           -4.4500    -2.5882    -0.4829 H       
  40 H40           -2.6704    -2.5562    -0.5000 H       
  41 H41           -5.6687    -2.8112     1.6046 H       
  42 H42           -5.6324    -3.6451     3.9209 H       
  43 H43           -1.3663    -3.5689     3.8797 H       
  44 H44           -1.4045    -2.7403     1.5615 H       
  45 H45           -6.4333     2.1311     2.4776 H       
  46 H46           -5.7430     3.5898     1.7266 H       
  47 H47           -8.0089     4.2889     1.0017 H       
  48 H48           -8.6992     2.8302     1.7527 H       
  49 H49           -7.1351     6.0950     2.3681 H       
  50 H50           -7.2340     7.2589     4.5355 H       
  51 H51           -8.8891     3.7622     6.3357 H       
  52 H52           -8.7946     2.6018     4.1662 H       
  53 H53            2.1564    -2.4878    -0.0335 H       
  54 H54            0.6251    -2.4401     0.8726 H       
  55 H55            0.6067    -2.4305    -0.9073 H       
  56 H56            0.5176     3.8482    -0.8723 H       
  57 H57            0.5346     3.8387     0.9076 H       
  58 H58            2.0643     3.9419     0.0035 H       
@<TRIPOS>BOND
   1    1    2 ar
   2    1   34 1
   3    1    6 ar
   4    2    3 ar
   5    2   32 1
   6    3    4 ar
   7    3   36 1
   8    4    5 ar
   9    4    7 1
  10    5    6 ar
  11    5   10 1
  12    6   37 1
  13    7    8 1
  14    7   12 1
  15    8    9 2
  16    8   38 1
  17    9   10 1
  18    9   20 1
  19   10   11 2
  20   12   13 1
  21   12   39 1
  22   12   40 1
  23   13   14 ar
  24   13   18 ar
  25   14   15 ar
  26   14   41 1
  27   15   16 ar
  28   15   42 1
  29   16   17 ar
  30   16   19 1
  31   17   18 ar
  32   17   43 1
  33   18   44 1
  34   20   21 1
  35   20   30 2
  36   20   31 2
  37   21   22 1
  38   21   45 1
  39   21   46 1
  40   22   23 1
  41   22   47 1
  42   22   48 1
  43   23   24 ar
  44   23   28 ar
  45   24   25 ar
  46   24   49 1
  47   25   26 ar
  48   25   50 1
  49   26   27 ar
  50   26   29 1
  51   27   28 ar
  52   27   51 1
  53   28   52 1
  54   32   33 1
  55   33   53 1
  56   33   54 1
  57   33   55 1
  58   34   35 1
  59   35   56 1
  60   35   57 1
  61   35   58 1

#	End of record

