#	Name: ASD01814612
#	Creating user name:	WinNT
#	Creation time:	15. 06. 2019 19:32

#	Modifying user name:	WinNT
#	Modification time:	15. 06. 2019 19:32

#	Program:	/corina/corina34_cracker 3.40 0067  02.08.2006

@<TRIPOS>MOLECULE
ASD01814612
  45   48    0    0    0
SMALL
NO_CHARGES


@<TRIPOS>ATOM
   1 N1             0.0197     1.3269    -0.5514 N.2     
   2 C2             0.0436     0.0259    -0.7208 C.2     
   3 C3             1.2624    -0.6381    -0.9283 C.2     
   4 C4             2.4148     0.0763    -0.9523 C.2     
   5 N5             2.3614     1.4293    -0.7733 N.pl3   
   6 C6             1.1517     2.0427    -0.5731 C.2     
   7 N7             3.3487     2.4196    -0.7445 N.2     
   8 C8             2.7752     3.5878    -0.5365 C.2     
   9 C9             1.4077     3.4007    -0.4245 C.2     
  10 C10            3.0769     5.0577    -0.3778 C.3     
  11 N11            1.8048     5.7537    -0.1611 N.am    
  12 C12            0.7499     4.7356    -0.1868 C.3     
  13 C13            1.6370     7.0778     0.0261 C.2     
  14 C14            2.8128     7.9629     0.1314 C.ar    
  15 C15            2.8843     8.9217     1.1514 C.ar    
  16 C16            3.8636     7.8463    -0.7813 C.ar    
  17 C17            4.9591     8.6762    -0.6776 C.ar    
  18 C18            5.0234     9.6262     0.3283 C.ar    
  19 C19            3.9941     9.7482     1.2408 C.ar    
  20 O20            0.5166     7.5430     0.1083 O.2     
  21 O21            1.8721     9.0408     2.0467 O.3     
  22 C22            2.0150    10.0400     3.0583 C.3     
  23 C23           -1.2429    -0.7585    -0.6918 C.3     
  24 Cl24           1.2945    -2.3593    -1.1519 Cl      
  25 C25            3.7364    -0.6133    -1.1729 C.3     
  26 C26            0.7846    10.0247     3.9676 C.3     
  27 H27            3.7320     5.2098     0.4800 H       
  28 H28            3.5558     5.4361    -1.2810 H       
  29 H29            0.0480     4.9504    -0.9926 H       
  30 H30            0.2248     4.7239     0.7684 H       
  31 H31            3.8179     7.1067    -1.5670 H       
  32 H32            5.7713     8.5850    -1.3836 H       
  33 H33            5.8859    10.2720     0.4023 H       
  34 H34            4.0533    10.4887     2.0248 H       
  35 H35            2.9067     9.8330     3.6500 H       
  36 H36            2.1088    11.0199     2.5903 H       
  37 H37           -2.0784    -0.0798    -0.5205 H       
  38 H38           -1.3788    -1.2687    -1.6454 H       
  39 H39           -1.2018    -1.4942     0.1114 H       
  40 H40            3.5719    -1.6841    -1.2935 H       
  41 H41            4.2087    -0.2149    -2.0709 H       
  42 H42            4.3847    -0.4398    -0.3140 H       
  43 H43           -0.1071    10.2317     3.3758 H       
  44 H44            0.6908     9.0448     4.4355 H       
  45 H45            0.8936    10.7869     4.7391 H       
@<TRIPOS>BOND
   1    1    2 2
   2    1    6 1
   3    2    3 1
   4    2   23 1
   5    3    4 2
   6    3   24 1
   7    4    5 1
   8    4   25 1
   9    5    7 1
  10    5    6 1
  11    6    9 2
  12    7    8 2
  13    8   10 1
  14    8    9 1
  15    9   12 1
  16   10   11 1
  17   10   27 1
  18   10   28 1
  19   11   12 1
  20   11   13 am
  21   12   29 1
  22   12   30 1
  23   13   14 1
  24   13   20 2
  25   14   16 ar
  26   14   15 ar
  27   15   19 ar
  28   15   21 1
  29   16   17 ar
  30   16   31 1
  31   17   18 ar
  32   17   32 1
  33   18   19 ar
  34   18   33 1
  35   19   34 1
  36   21   22 1
  37   22   26 1
  38   22   35 1
  39   22   36 1
  40   23   37 1
  41   23   38 1
  42   23   39 1
  43   25   40 1
  44   25   41 1
  45   25   42 1
  46   26   43 1
  47   26   44 1
  48   26   45 1

#	End of record

