#	Name: ASD03092395
#	Creating user name:	WinNT
#	Creation time:	15. 06. 2019 20:32

#	Modifying user name:	WinNT
#	Modification time:	15. 06. 2019 20:32

#	Program:	/corina/corina34_cracker 3.40 0067  02.08.2006

@<TRIPOS>MOLECULE
ASD03092395
  52   55    0    0    0
SMALL
NO_CHARGES


@<TRIPOS>ATOM
   1 O1             0.4847     0.3849     0.3501 O.3     
   2 N2             0.6568    -0.8091     0.3283 N.2     
   3 C3             1.9148    -1.1247     0.2378 C.2     
   4 C4             2.6354     0.1571     0.1979 C.2     
   5 C5             1.6216     1.0806     0.2763 C.2     
   6 C6             4.0871     0.3925     0.0988 C.2     
   7 O7             4.8531    -0.5500     0.0379 O.2     
   8 N8             4.5655     1.6523     0.0756 N.am    
   9 C9             2.5084    -2.5089     0.1854 C.3     
  10 C10            6.0084     1.8862    -0.0230 C.3     
  11 S11            6.7291     5.7580    -0.7213 S.3     
  12 C12            6.6120     5.3515     0.9349 C.2     
  13 N13            6.3779     4.0809     1.0716 N.2     
  14 C14            6.2775     3.3690    -0.0298 C.2     
  15 C15            6.4361     4.0788    -1.1665 C.2     
  16 C16            7.2675     3.3337    -4.7523 C.ar    
  17 C17            7.3644     3.8569    -3.4811 C.ar    
  18 C18            6.3744     3.5430    -2.5404 C.ar    
  19 C19            5.3245     2.7056    -2.9405 C.ar    
  20 C20            5.3070     2.2277    -4.2329 C.ar    
  21 N21            6.2608     2.5483    -5.0875 N.ar    
  22 N22            6.7475     6.2470     1.9800 N.3     
  23 C23            7.0068     7.6050     1.4799 C.3     
  24 C24            7.2090     8.5502     2.6671 C.3     
  25 O25            6.0583     8.4960     3.5147 O.3     
  26 C26            5.7768     7.1881     4.0202 C.3     
  27 C27            5.5601     6.2290     2.8467 C.3     
  28 C28            4.5135     7.2345     4.8821 C.3     
  29 C29            7.3997     9.9795     2.1555 C.3     
  30 H30            1.7239     2.1558     0.2780 H       
  31 H31            3.9545     2.4041     0.1241 H       
  32 H32            2.5802    -2.8344    -0.8524 H       
  33 H33            3.5029    -2.4948     0.6314 H       
  34 H34            1.8715    -3.1985     0.7393 H       
  35 H35            6.5095     1.4299     0.8307 H       
  36 H36            6.3860     1.4441    -0.9449 H       
  37 H37            8.0231     3.5734    -5.4858 H       
  38 H38            8.1910     4.4985    -3.2138 H       
  39 H39            4.5412     2.4385    -2.2465 H       
  40 H40            4.5021     1.5816    -4.5509 H       
  41 H41            7.9045     7.5999     0.8617 H       
  42 H42            6.1572     7.9427     0.8864 H       
  43 H43            8.0906     8.2439     3.2303 H       
  44 H44            6.6167     6.8421     4.6226 H       
  45 H45            4.6874     6.5447     2.2750 H       
  46 H46            5.4017     5.2195     3.2261 H       
  47 H47            3.6740     7.5787     4.2781 H       
  48 H48            4.2995     6.2374     5.2670 H       
  49 H49            4.6671     7.9204     5.7152 H       
  50 H50            6.5168    10.2853     1.5942 H       
  51 H51            7.5436    10.6520     3.0012 H       
  52 H52            8.2746    10.0194     1.5066 H       
@<TRIPOS>BOND
   1    1    2 1
   2    1    5 1
   3    2    3 2
   4    3    4 1
   5    3    9 1
   6    4    5 2
   7    4    6 1
   8    5   30 1
   9    6    7 2
  10    6    8 am
  11    8   10 1
  12    8   31 1
  13    9   32 1
  14    9   33 1
  15    9   34 1
  16   10   14 1
  17   10   35 1
  18   10   36 1
  19   11   12 1
  20   11   15 1
  21   12   13 2
  22   12   22 1
  23   13   14 1
  24   14   15 2
  25   15   18 1
  26   16   17 ar
  27   16   21 ar
  28   16   37 1
  29   17   18 ar
  30   17   38 1
  31   18   19 ar
  32   19   20 ar
  33   19   39 1
  34   20   21 ar
  35   20   40 1
  36   22   23 1
  37   22   27 1
  38   23   24 1
  39   23   41 1
  40   23   42 1
  41   24   25 1
  42   24   29 1
  43   24   43 1
  44   25   26 1
  45   26   27 1
  46   26   28 1
  47   26   44 1
  48   27   45 1
  49   27   46 1
  50   28   47 1
  51   28   48 1
  52   28   49 1
  53   29   50 1
  54   29   51 1
  55   29   52 1

#	End of record

