#	Name: ASD01141121
#	Creating user name:	WinNT
#	Creation time:	15. 06. 2019 19:01

#	Modifying user name:	WinNT
#	Modification time:	15. 06. 2019 19:01

#	Program:	/corina/corina34_cracker 3.40 0067  02.08.2006

@<TRIPOS>MOLECULE
ASD01141121
  54   57    0    0    0
SMALL
NO_CHARGES


@<TRIPOS>ATOM
   1 C1            -0.0941     2.3363    -0.2700 C.3     
   2 C2            -0.2667     0.8182    -0.3049 C.3     
   3 C3             0.3893     0.1857     0.9244 C.3     
   4 C4             1.8741     0.5503     0.9489 C.3     
   5 C5             2.0448     2.0659     1.0133 C.3     
   6 C6             1.3899     2.7019    -0.2117 C.3     
   7 C7             2.5691    -0.1339     2.1233 C.3     
   8 C8             4.0619     0.2191     2.1238 C.3     
   9 C9             4.3514     1.1217     0.9249 C.3     
  10 C10            3.5406     2.4095     1.0596 C.3     
  11 C11            5.8056     1.3953     0.7268 C.3     
  12 C12            6.1863     2.8770     0.9326 C.3     
  13 C13            5.4206     3.7399    -0.0368 C.3     
  14 C14            3.9176     3.4301     0.0021 C.3     
  15 C15            6.8267     0.6979     1.6372 C.3     
  16 C16            8.1391     1.4171     1.1990 C.3     
  17 C17            7.7098     2.8131     0.6803 C.3     
  18 C18            6.0143     3.3578     2.3715 C.3     
  19 C19            1.3994     2.6273     2.2845 C.3     
  20 H20            2.3195     0.1822     0.0151 H       
  21 O21            0.3310     0.2935    -1.4917 O.3     
  22 N22            8.3771     3.8690     1.4405 N.pl3   
  23 O23            9.0804     4.6811     0.8666 O.2     
  24 O24            8.2296     3.9364     2.6477 O.2     
  25 H25           -0.5252     2.7610    -1.1841 H       
  26 H26           -0.6260     2.7515     0.5821 H       
  27 H27           -1.3325     0.5778    -0.3052 H       
  28 H28           -0.1085     0.5211     1.8283 H       
  29 H29            0.2933    -0.9031     0.8551 H       
  30 H30            1.8828     2.3445    -1.1170 H       
  31 H31            1.4877     3.7878    -0.1538 H       
  32 H32            2.1182     0.1649     3.0657 H       
  33 H33            2.4649    -1.2190     2.0154 H       
  34 H34            4.3123     0.7415     3.0460 H       
  35 H35            4.6513    -0.6939     2.0457 H       
  36 H36            3.9935     0.5901     0.0214 H       
  37 H37            3.6892     2.8363     2.0563 H       
  38 H38            6.0665     1.1189    -0.3211 H       
  39 H39            5.5804     4.7989     0.2074 H       
  40 H40            5.7998     3.5746    -1.0546 H       
  41 H41            3.6116     3.0617    -0.9861 H       
  42 H42            3.3693     4.3633     0.1883 H       
  43 H43            6.6214     0.8469     2.6869 H       
  44 H44            6.8866    -0.3654     1.3983 H       
  45 H45            8.8056     1.5219     2.0526 H       
  46 H46            8.6209     0.8525     0.4035 H       
  47 H47            7.9083     2.9081    -0.3816 H       
  48 H48            6.6835     2.7973     3.0243 H       
  49 H49            6.2539     4.4195     2.4309 H       
  50 H50            4.9829     3.1999     2.6866 H       
  51 H51            1.8722     2.1811     3.1595 H       
  52 H52            1.5317     3.7089     2.3120 H       
  53 H53            0.3353     2.3912     2.2865 H       
  54 H54           -0.0491     0.6410    -2.3102 H       
@<TRIPOS>BOND
   1    1    2 1
   2    1    6 1
   3    1   25 1
   4    1   26 1
   5    2    3 1
   6    2   21 1
   7    2   27 1
   8    3    4 1
   9    3   28 1
  10    3   29 1
  11    4    5 1
  12    4    7 1
  13    4   20 1
  14    5    6 1
  15    5   19 1
  16    5   10 1
  17    6   30 1
  18    6   31 1
  19    7    8 1
  20    7   32 1
  21    7   33 1
  22    8    9 1
  23    8   34 1
  24    8   35 1
  25    9   10 1
  26    9   11 1
  27    9   36 1
  28   10   14 1
  29   10   37 1
  30   11   12 1
  31   11   15 1
  32   11   38 1
  33   12   13 1
  34   12   18 1
  35   12   17 1
  36   13   14 1
  37   13   39 1
  38   13   40 1
  39   14   41 1
  40   14   42 1
  41   15   16 1
  42   15   43 1
  43   15   44 1
  44   16   17 1
  45   16   45 1
  46   16   46 1
  47   17   22 1
  48   17   47 1
  49   18   48 1
  50   18   49 1
  51   18   50 1
  52   19   51 1
  53   19   52 1
  54   19   53 1
  55   21   54 1
  56   22   23 2
  57   22   24 2

#	End of record

