#	Name: ASD06600003
#	Creating user name:	WinNT
#	Creation time:	15. 06. 2019 21:06

#	Modifying user name:	WinNT
#	Modification time:	15. 06. 2019 21:06

#	Program:	/corina/corina34_cracker 3.40 0067  02.08.2006

@<TRIPOS>MOLECULE
ASD06600003
 196  196    0    0    0
SMALL
NO_CHARGES


@<TRIPOS>ATOM
   1 C1            -0.0144     1.2086     0.0087 C.2     
   2 O2             0.0021    -0.0041     0.0020 O.2     
   3 N3             2.4066     1.0431    -0.0153 N.am    
   4 C4             1.2803     1.9798     0.0005 C.3     
   5 C5             1.3375     2.8671    -1.2446 C.3     
   6 C6             2.5731     3.7283    -1.1914 C.2     
   7 C7             3.5251     3.8058    -2.1407 C.2     
   8 N8             4.4597     4.6998    -1.6923 N.pl3   
   9 C9             4.0458     5.1378    -0.4838 C.2     
  10 N10            2.9143     4.5563    -0.1929 N.2     
  11 C11           -3.5426     1.9694    -0.5709 C.2     
  12 O12           -3.2948     3.0926    -0.9556 O.2     
  13 N13           -1.1906     1.8666     0.0178 N.am    
  14 C14           -2.4492     1.1169     0.0197 C.3     
  15 C15           -2.8163     0.7401     1.4565 C.3     
  16 C16           -1.7689    -0.2260     2.0138 C.3     
  17 C17           -2.1359    -0.6028     3.4505 C.3     
  18 N18           -1.1331    -1.5279     3.9841 N.pl3   
  19 C19           -1.2536    -2.0071     5.2671 C.2     
  20 N20           -0.3613    -2.8301     5.7418 N.2     
  21 N21           -2.3153    -1.6183     6.0492 N.pl3   
  22 C22           -7.1934     1.8552    -0.7166 C.2     
  23 O23           -7.2513     0.9284     0.0635 O.2     
  24 N24           -4.7957     1.4837    -0.6717 N.am    
  25 C25           -5.8586     2.3124    -1.2459 C.3     
  26 C26           -5.8417     2.1796    -2.7700 C.3     
  27 C27           -4.5360     2.7591    -3.3180 C.3     
  28 C28           -4.5193     2.6283    -4.8192 C.2     
  29 O29           -5.4593     2.1215    -5.3942 O.2     
  30 N30           -3.4599     3.0744    -5.5228 N.am    
  31 C31          -10.7041     2.4068    -1.5736 C.2     
  32 O32          -10.4202     2.9881    -2.5995 O.2     
  33 N33           -8.3230     2.4763    -1.1101 N.am    
  34 C34           -9.6207     2.0318    -0.5955 C.3     
  35 C35           -9.8934     2.7057     0.7507 C.3     
  36 C36           -8.7307     2.4271     1.7054 C.3     
  37 O37          -10.0254     4.1157     0.5595 O.3     
  38 C38          -14.3550     2.5850    -1.5307 C.2     
  39 O39          -14.4062     2.3884    -0.3350 O.2     
  40 N40          -11.9884     2.0962    -1.3083 N.am    
  41 C41          -13.0416     2.4607    -2.2592 C.3     
  42 C42          -13.1552     1.3780    -3.3342 C.3     
  43 C43          -11.8649     1.3373    -4.1554 C.3     
  44 C44          -11.9784     0.2546    -5.2305 C.3     
  45 N45          -10.7429     0.2157    -6.0168 N.pl3   
  46 C46          -10.6119    -0.6850    -7.0471 C.2     
  47 N47          -11.5870    -1.5044    -7.3244 N.2     
  48 N48           -9.4525    -0.7215    -7.7850 N.pl3   
  49 C49          -17.8831     2.7975    -2.4639 C.2     
  50 O50          -17.6476     2.5513    -3.6279 O.2     
  51 N51          -15.4727     2.9146    -2.2080 N.am    
  52 C52          -16.7494     3.0354    -1.4998 C.3     
  53 C53          -16.8719     4.4398    -0.9051 C.3     
  54 O54          -16.9329     5.4006    -1.9612 O.3     
  55 C55          -21.5012     3.3190    -2.4668 C.2     
  56 O56          -21.4682     3.9438    -1.4278 O.2     
  57 N57          -19.1585     2.8584    -2.0326 N.am    
  58 C58          -20.2605     2.6272    -2.9698 C.3     
  59 C59          -20.5255     1.1247    -3.0847 C.3     
  60 O60          -20.9868     0.6249    -1.8280 O.3     
  61 C61          -25.0733     3.2269    -3.2380 C.2     
  62 O62          -24.9474     2.2682    -3.9701 O.2     
  63 N63          -22.6475     3.2436    -3.1716 N.am    
  64 C64          -23.8537     3.9162    -2.6826 C.3     
  65 C65          -23.8425     5.3772    -3.1367 C.3     
  66 C66          -22.5439     6.0438    -2.6783 C.3     
  67 O67          -23.9295     5.4337    -4.5620 O.3     
  68 C68          -27.7987     3.5565    -4.8291 C.2     
  69 O69          -27.1002     4.4202    -5.3045 O.2     
  70 N70          -26.3040     3.6758    -2.9210 N.am    
  71 C71          -27.4896     3.0057    -3.4609 C.3     
  72 C72          -28.6806     3.2496    -2.5319 C.3     
  73 C73          -28.4184     2.5819    -1.1805 C.3     
  74 C74          -29.5915     2.8222    -0.2655 C.2     
  75 O75          -30.5399     3.4618    -0.6544 O.2     
  76 O76          -29.5828     2.3256     0.9815 O.3     
  77 O77          -28.8499     3.0877    -5.5196 O.3     
  78 C78            3.6058     1.4228     0.4686 C.2     
  79 O79            3.7525     2.5401     0.9171 O.2     
  80 C80           21.6351    -1.6585     4.5475 C.3     
  81 C81           20.4589    -0.6802     4.5640 C.3     
  82 C82           19.2250    -1.3560     3.9625 C.3     
  83 C83           18.0488    -0.3777     3.9790 C.3     
  84 C84           16.8149    -1.0534     3.3775 C.3     
  85 C85           15.6387    -0.0751     3.3940 C.3     
  86 C86           14.4048    -0.7509     2.7924 C.3     
  87 C87           13.2286     0.2274     2.8089 C.3     
  88 C88           11.9947    -0.4484     2.2074 C.3     
  89 C89           10.8184     0.5299     2.2239 C.3     
  90 C90            9.5846    -0.1458     1.6224 C.3     
  91 C91            8.4083     0.8325     1.6389 C.3     
  92 C92            7.1745     0.1567     1.0374 C.3     
  93 C93            5.9982     1.1350     1.0539 C.3     
  94 C94            4.7644     0.4592     0.4523 C.3     
  95 H95            2.2893     0.1495    -0.3740 H       
  96 H96            1.3381     2.6024     0.8933 H       
  97 H97            1.3693     2.2407    -2.1361 H       
  98 H98            0.4527     3.5029    -1.2787 H       
  99 H99            3.5473     3.2660    -3.0759 H       
 100 H100           5.2681     4.9686    -2.1560 H       
 101 H101           4.5634     5.8539     0.1373 H       
 102 H102          -1.2037     2.8365     0.0232 H       
 103 H103          -2.3335     0.2109    -0.5752 H       
 104 H104          -2.8450     1.6393     2.0719 H       
 105 H105          -3.7951     0.2607     1.4676 H       
 106 H106          -1.7401    -1.1252     1.3984 H       
 107 H107          -0.7900     0.2534     2.0026 H       
 108 H108          -2.1647     0.2964     4.0659 H       
 109 H109          -3.1148    -1.0822     3.4616 H       
 110 H110          -0.3840    -1.8022     3.4323 H       
 111 H111          -0.4464    -3.1683     6.6470 H       
 112 H112          -2.9793    -1.0058     5.6959 H       
 113 H113          -2.4003    -1.9564     6.9544 H       
 114 H114          -4.9939     0.5854    -0.3641 H       
 115 H115          -5.6959     3.3544    -0.9701 H       
 116 H116          -5.9154     1.1272    -3.0439 H       
 117 H117          -6.6863     2.7247    -3.1916 H       
 118 H118          -4.4623     3.8115    -3.0442 H       
 119 H119          -3.6914     2.2140    -2.8964 H       
 120 H120          -2.7082     3.4797    -5.0629 H       
 121 H121          -3.4492     2.9902    -6.4891 H       
 122 H122          -8.2768     3.2176    -1.7340 H       
 123 H123          -9.6082     0.9498    -0.4643 H       
 124 H124         -10.8154     2.3088     1.1755 H       
 125 H125          -7.8087     2.8240     1.2806 H       
 126 H126          -8.9250     2.9072     2.6645 H       
 127 H127          -8.6300     1.3516     1.8512 H       
 128 H128          -9.2403     4.5368     0.1835 H       
 129 H129         -12.2155     1.6313    -0.4878 H       
 130 H130         -12.7944     3.4133    -2.7276 H       
 131 H131         -13.3143     0.4098    -2.8595 H       
 132 H132         -13.9962     1.6038    -3.9899 H       
 133 H133         -11.7057     2.3055    -4.6302 H       
 134 H134         -11.0239     1.1116    -3.4998 H       
 135 H135         -12.1376    -0.7135    -4.7557 H       
 136 H136         -12.8194     0.4804    -5.8861 H       
 137 H137         -10.0173     0.8255    -5.8104 H       
 138 H138         -11.4945    -2.1399    -8.0514 H       
 139 H139          -8.7268    -0.1118    -7.5787 H       
 140 H140          -9.3600    -1.3570    -8.5120 H       
 141 H141         -15.4317     3.0718    -3.1643 H       
 142 H142         -16.7922     2.2968    -0.6993 H       
 143 H143         -17.7792     4.5021    -0.3044 H       
 144 H144         -16.0052     4.6451    -0.2768 H       
 145 H145         -17.0113     6.3151    -1.6568 H       
 146 H146         -19.3468     3.0553    -1.1016 H       
 147 H147         -19.9942     3.0251    -3.9490 H       
 148 H148         -21.2840     0.9468    -3.8470 H       
 149 H149         -19.6039     0.6134    -3.3628 H       
 150 H150         -21.1752    -0.3236    -1.8271 H       
 151 H151         -22.6739     2.7439    -4.0026 H       
 152 H152         -23.8769     3.8743    -1.5937 H       
 153 H153         -24.6932     5.9000    -2.6997 H       
 154 H154         -21.6931     5.5210    -3.1153 H       
 155 H155         -22.5359     7.0847    -3.0018 H       
 156 H156         -22.4775     6.0007    -1.5912 H       
 157 H157         -23.2031     4.9875    -5.0184 H       
 158 H158         -26.4046     4.4425    -2.3355 H       
 159 H159         -27.2998     1.9349    -3.5347 H       
 160 H160         -28.8152     4.3216    -2.3875 H       
 161 H161         -29.5813     2.8271    -2.9773 H       
 162 H162         -28.2839     1.5099    -1.3249 H       
 163 H163         -27.5178     3.0044    -0.7351 H       
 164 H164         -30.3576     2.5059     1.5313 H       
 165 H165         -29.0081     3.4717    -6.3929 H       
 166 H166          21.3818    -2.5412     5.1347 H       
 167 H167          21.8474    -1.9542     3.5201 H       
 168 H168          22.5141    -1.1771     4.9760 H       
 169 H169          20.2466    -0.3845     5.5914 H       
 170 H170          20.7122     0.2025     3.9769 H       
 171 H171          19.4373    -1.6516     2.9351 H       
 172 H172          18.9717    -2.2387     4.5497 H       
 173 H173          17.8365    -0.0820     5.0064 H       
 174 H174          18.3021     0.5051     3.3918 H       
 175 H175          17.0272    -1.3491     2.3500 H       
 176 H176          16.5616    -1.9361     3.9646 H       
 177 H177          15.4264     0.2206     4.4214 H       
 178 H178          15.8920     0.8076     2.8068 H       
 179 H179          14.6171    -1.0466     1.7650 H       
 180 H180          14.1515    -1.6336     3.3796 H       
 181 H181          13.0163     0.5231     3.8364 H       
 182 H182          13.4819     1.1101     2.2218 H       
 183 H183          12.2070    -0.7440     1.1800 H       
 184 H184          11.7414    -1.3311     2.7946 H       
 185 H185          10.6062     0.8256     3.2513 H       
 186 H186          11.0718     1.4127     1.6367 H       
 187 H187           9.7969    -0.4415     0.5950 H       
 188 H188           9.3313    -1.0285     2.2095 H       
 189 H189           8.1961     1.1282     2.6663 H       
 190 H190           8.6617     1.7152     1.0517 H       
 191 H191           7.3868    -0.1390     0.0099 H       
 192 H192           6.9211    -0.7260     1.6245 H       
 193 H193           5.7859     1.4307     2.0813 H       
 194 H194           6.2516     2.0177     0.4667 H       
 195 H195           4.5110    -0.4235     1.0395 H       
 196 H196           4.9766     0.1636    -0.5751 H       
@<TRIPOS>BOND
   1    1    2 2
   2    1    4 1
   3    1   13 am
   4    3   78 am
   5    3    4 1
   6    3   95 1
   7    4    5 1
   8    4   96 1
   9    5    6 1
  10    5   97 1
  11    5   98 1
  12    6    7 2
  13    6   10 1
  14    7    8 1
  15    7   99 1
  16    8    9 1
  17    8  100 1
  18    9   10 2
  19    9  101 1
  20   11   12 2
  21   11   14 1
  22   11   24 am
  23   13   14 1
  24   13  102 1
  25   14   15 1
  26   14  103 1
  27   15   16 1
  28   15  104 1
  29   15  105 1
  30   16   17 1
  31   16  106 1
  32   16  107 1
  33   17   18 1
  34   17  108 1
  35   17  109 1
  36   18   19 1
  37   18  110 1
  38   19   20 2
  39   19   21 1
  40   20  111 1
  41   21  112 1
  42   21  113 1
  43   22   23 2
  44   22   25 1
  45   22   33 am
  46   24   25 1
  47   24  114 1
  48   25   26 1
  49   25  115 1
  50   26   27 1
  51   26  116 1
  52   26  117 1
  53   27   28 1
  54   27  118 1
  55   27  119 1
  56   28   29 2
  57   28   30 am
  58   30  120 1
  59   30  121 1
  60   31   32 2
  61   31   34 1
  62   31   40 am
  63   33   34 1
  64   33  122 1
  65   34   35 1
  66   34  123 1
  67   35   36 1
  68   35   37 1
  69   35  124 1
  70   36  125 1
  71   36  126 1
  72   36  127 1
  73   37  128 1
  74   38   39 2
  75   38   41 1
  76   38   51 am
  77   40   41 1
  78   40  129 1
  79   41   42 1
  80   41  130 1
  81   42   43 1
  82   42  131 1
  83   42  132 1
  84   43   44 1
  85   43  133 1
  86   43  134 1
  87   44   45 1
  88   44  135 1
  89   44  136 1
  90   45   46 1
  91   45  137 1
  92   46   47 2
  93   46   48 1
  94   47  138 1
  95   48  139 1
  96   48  140 1
  97   49   50 2
  98   49   52 1
  99   49   57 am
 100   51   52 1
 101   51  141 1
 102   52   53 1
 103   52  142 1
 104   53   54 1
 105   53  143 1
 106   53  144 1
 107   54  145 1
 108   55   56 2
 109   55   58 1
 110   55   63 am
 111   57   58 1
 112   57  146 1
 113   58   59 1
 114   58  147 1
 115   59   60 1
 116   59  148 1
 117   59  149 1
 118   60  150 1
 119   61   62 2
 120   61   64 1
 121   61   70 am
 122   63   64 1
 123   63  151 1
 124   64   65 1
 125   64  152 1
 126   65   66 1
 127   65   67 1
 128   65  153 1
 129   66  154 1
 130   66  155 1
 131   66  156 1
 132   67  157 1
 133   68   69 2
 134   68   71 1
 135   68   77 1
 136   70   71 1
 137   70  158 1
 138   71   72 1
 139   71  159 1
 140   72   73 1
 141   72  160 1
 142   72  161 1
 143   73   74 1
 144   73  162 1
 145   73  163 1
 146   74   75 2
 147   74   76 1
 148   76  164 1
 149   77  165 1
 150   78   79 2
 151   78   94 1
 152   80   81 1
 153   80  166 1
 154   80  167 1
 155   80  168 1
 156   81   82 1
 157   81  169 1
 158   81  170 1
 159   82   83 1
 160   82  171 1
 161   82  172 1
 162   83   84 1
 163   83  173 1
 164   83  174 1
 165   84   85 1
 166   84  175 1
 167   84  176 1
 168   85   86 1
 169   85  177 1
 170   85  178 1
 171   86   87 1
 172   86  179 1
 173   86  180 1
 174   87   88 1
 175   87  181 1
 176   87  182 1
 177   88   89 1
 178   88  183 1
 179   88  184 1
 180   89   90 1
 181   89  185 1
 182   89  186 1
 183   90   91 1
 184   90  187 1
 185   90  188 1
 186   91   92 1
 187   91  189 1
 188   91  190 1
 189   92   93 1
 190   92  191 1
 191   92  192 1
 192   93   94 1
 193   93  193 1
 194   93  194 1
 195   94  195 1
 196   94  196 1

#	End of record

