#	Name: ASD01881132
#	Creating user name:	WinNT
#	Creation time:	15. 06. 2019 19:42

#	Modifying user name:	WinNT
#	Modification time:	15. 06. 2019 19:42

#	Program:	/corina/corina34_cracker 3.40 0067  02.08.2006

@<TRIPOS>MOLECULE
ASD01881132
  47   49    0    0    0
SMALL
NO_CHARGES


@<TRIPOS>ATOM
   1 N1            -0.0158     1.3136     0.0093 N.ar    
   2 C2             0.0021    -0.0041     0.0020 C.ar    
   3 N3             1.1321    -0.6824    -0.0120 N.ar    
   4 C4             2.2981    -0.0570    -0.0197 C.ar    
   5 C5             2.3199     1.3290    -0.0130 C.ar    
   6 C6             1.1114     2.0071     0.0022 C.ar    
   7 C7             3.6262     2.0803    -0.0209 C.3     
   8 O8             4.0270     2.3245    -1.3706 O.3     
   9 C9             5.1917     2.9962    -1.5555 C.ar    
  10 C10            5.6405     3.2674    -2.8449 C.ar    
  11 C11            6.8181     3.9470    -3.0316 C.ar    
  12 C12            7.5732     4.3706    -1.9326 C.ar    
  13 C13            7.1182     4.0957    -0.6386 C.ar    
  14 C14            5.9315     3.4171    -0.4577 C.ar    
  15 C15            7.5697     4.3925    -4.2613 C.3     
  16 N16            8.7728     5.0804    -3.7790 N.am    
  17 C17            8.7703     5.0652    -2.4350 C.2     
  18 O18            9.6340     5.5557    -1.7336 O.2     
  19 C19           -1.3043    -0.7553     0.0105 C.3     
  20 C20            3.5851    -0.8409    -0.0352 C.3     
  21 Cl21           8.0425     4.6133     0.7367 Cl      
  22 C22            1.0812     3.5137     0.0096 C.3     
  23 C23            1.0567     4.0304    -1.4303 C.3     
  24 F24           -0.0825     3.5443    -2.0808 F       
  25 F25            1.0286     5.4291    -1.4234 F       
  26 F26            2.2015     3.5903    -2.1032 F       
  27 C27            9.4460     7.1450    -4.9040 C.3     
  28 C28            9.8062     5.6847    -4.6234 C.3     
  29 H29            3.5022     3.0303     0.4989 H       
  30 H30            4.3894     1.4874     0.4831 H       
  31 H31            5.0626     2.9430    -3.6976 H       
  32 H32            5.5799     3.2051     0.5412 H       
  33 H33            7.8485     3.5280    -4.8638 H       
  34 H34            6.9566     5.0767    -4.8479 H       
  35 H35           -1.6291    -0.9309    -1.0151 H       
  36 H36           -1.1707    -1.7107     0.5179 H       
  37 H37           -2.0580    -0.1677     0.5347 H       
  38 H38            3.8860    -1.0251    -1.0666 H       
  39 H39            4.3631    -0.2722     0.4741 H       
  40 H40            3.4372    -1.7924     0.4755 H       
  41 H41            0.1893     3.8567     0.5340 H       
  42 H42            1.9688     3.8925     0.5165 H       
  43 H43            8.4853     7.1901    -5.4170 H       
  44 H44            9.3811     7.6905    -3.9626 H       
  45 H45           10.2149     7.5946    -5.5322 H       
  46 H46           10.7669     5.6396    -4.1103 H       
  47 H47            9.8711     5.1391    -5.5648 H       
@<TRIPOS>BOND
   1    1    2 ar
   2    1    6 ar
   3    2    3 ar
   4    2   19 1
   5    3    4 ar
   6    4    5 ar
   7    4   20 1
   8    5    6 ar
   9    5    7 1
  10    6   22 1
  11    7    8 1
  12    7   29 1
  13    7   30 1
  14    8    9 1
  15    9   10 ar
  16    9   14 ar
  17   10   11 ar
  18   10   31 1
  19   11   12 ar
  20   11   15 1
  21   12   13 ar
  22   12   17 1
  23   13   14 ar
  24   13   21 1
  25   14   32 1
  26   15   16 1
  27   15   33 1
  28   15   34 1
  29   16   17 am
  30   16   28 1
  31   17   18 2
  32   19   35 1
  33   19   36 1
  34   19   37 1
  35   20   38 1
  36   20   39 1
  37   20   40 1
  38   22   23 1
  39   22   41 1
  40   22   42 1
  41   23   24 1
  42   23   25 1
  43   23   26 1
  44   27   28 1
  45   27   43 1
  46   27   44 1
  47   27   45 1
  48   28   46 1
  49   28   47 1

#	End of record

