#	Name: ASD05720003
#	Creating user name:	WinNT
#	Creation time:	15. 06. 2019 21:01

#	Modifying user name:	WinNT
#	Modification time:	15. 06. 2019 21:01

#	Program:	/corina/corina34_cracker 3.40 0067  02.08.2006

@<TRIPOS>MOLECULE
ASD05720003
  51   55    0    0    0
SMALL
NO_CHARGES


@<TRIPOS>ATOM
   1 O1             0.0871     1.3448    -0.0652 O.3     
   2 C2             0.1258     0.0146    -0.2007 C.2     
   3 N3             1.3637    -0.4976    -0.1700 N.am    
   4 C4             2.3281     0.5985     0.0091 C.3     
   5 C5             1.4431     1.8579     0.0799 C.3     
   6 O6            -0.8705    -0.6671    -0.3383 O.2     
   7 C7             3.2732    -3.5086    -0.4727 C.2     
   8 N8             2.9476    -2.2173    -0.3588 N.2     
   9 C9             1.6839    -1.8438    -0.2876 C.2     
  10 C10            0.6588    -2.8106    -0.3304 C.2     
  11 C11            0.9846    -4.1181    -0.4451 C.2     
  12 N12            2.3027    -4.4743    -0.5172 N.pl3   
  13 N13            2.9362    -5.7163    -0.6374 N.2     
  14 C14            4.2342    -5.5389    -0.6668 C.2     
  15 C15            4.5054    -4.1685    -0.5723 C.2     
  16 C16            5.8433    -3.5354    -0.5751 C.ar    
  17 C17            6.8417    -4.0086     0.2787 C.ar    
  18 C18            8.0859    -3.4192     0.2757 C.ar    
  19 C19            8.3492    -2.3495    -0.5802 C.ar    
  20 C20            7.3525    -1.8764    -1.4332 C.ar    
  21 C21            6.1093    -2.4687    -1.4353 C.ar    
  22 N22           11.3215    -0.2656    -0.5469 N.pl3   
  23 N23            9.9263    -0.4225    -0.5172 N.2     
  24 C24            9.6896    -1.7148    -0.5825 C.2     
  25 N25           10.8607    -2.3628    -0.6508 N.2     
  26 C26           11.8440    -1.5023    -0.6300 C.2     
  27 C27            9.1634    -3.9294     1.1975 C.3     
  28 C28            3.2803     0.6773    -1.1859 C.3     
  29 C29            2.4750     0.9159    -2.4648 C.3     
  30 C30            4.2634     1.8313    -0.9795 C.3     
  31 H31            2.8860     0.4700     0.9366 H       
  32 H32            1.6829     2.5398    -0.7360 H       
  33 H33            1.5624     2.3553     1.0424 H       
  34 H34           -0.3769    -2.5100    -0.2717 H       
  35 H35            0.2125    -4.8725    -0.4790 H       
  36 H36            4.9736    -6.3214    -0.7533 H       
  37 H37            6.6378    -4.8365     0.9416 H       
  38 H38            7.5571    -1.0482    -2.0955 H       
  39 H39            5.3389    -2.1054    -2.0994 H       
  40 H40           11.8120     0.5708    -0.5175 H       
  41 H41           12.8960    -1.7429    -0.6727 H       
  42 H42            9.6792    -4.7657     0.7256 H       
  43 H43            9.8765    -3.1304     1.4001 H       
  44 H44            8.7138    -4.2612     2.1334 H       
  45 H45            3.8319    -0.2588    -1.2732 H       
  46 H46            1.7118     0.1439    -2.5630 H       
  47 H47            1.9977     1.8946    -2.4163 H       
  48 H48            3.1419     0.8791    -3.3262 H       
  49 H49            4.7733     1.7077    -0.0241 H       
  50 H50            4.9972     1.8320    -1.7855 H       
  51 H51            3.7201     2.7762    -0.9818 H       
@<TRIPOS>BOND
   1    1    2 1
   2    1    5 1
   3    2    3 am
   4    2    6 2
   5    3    4 1
   6    3    9 1
   7    4    5 1
   8    4   28 1
   9    4   31 1
  10    5   32 1
  11    5   33 1
  12    7    8 1
  13    7   12 1
  14    7   15 2
  15    8    9 2
  16    9   10 1
  17   10   11 2
  18   10   34 1
  19   11   12 1
  20   11   35 1
  21   12   13 1
  22   13   14 2
  23   14   15 1
  24   14   36 1
  25   15   16 1
  26   16   17 ar
  27   16   21 ar
  28   17   18 ar
  29   17   37 1
  30   18   19 ar
  31   18   27 1
  32   19   20 ar
  33   19   24 1
  34   20   21 ar
  35   20   38 1
  36   21   39 1
  37   22   23 1
  38   22   26 1
  39   22   40 1
  40   23   24 2
  41   24   25 1
  42   25   26 2
  43   26   41 1
  44   27   42 1
  45   27   43 1
  46   27   44 1
  47   28   29 1
  48   28   30 1
  49   28   45 1
  50   29   46 1
  51   29   47 1
  52   29   48 1
  53   30   49 1
  54   30   50 1
  55   30   51 1

#	End of record

