#	Name: ASD09120001
#	Creating user name:	WinNT
#	Creation time:	15. 06. 2019 21:21

#	Modifying user name:	WinNT
#	Modification time:	15. 06. 2019 21:21

#	Program:	/corina/corina34_cracker 3.40 0067  02.08.2006

@<TRIPOS>MOLECULE
ASD09120001
  49   51    0    0    0
SMALL
NO_CHARGES


@<TRIPOS>ATOM
   1 C1            -0.0187     1.5258     0.0104 C.3     
   2 C2             0.0021    -0.0041     0.0020 C.3     
   3 C3             0.7182    -0.4975    -1.2568 C.3     
   4 C4            -0.0892    -0.0968    -2.4931 C.3     
   5 C5             0.6750    -0.4738    -3.7360 C.2     
   6 O6             1.8913     0.0478    -3.9601 O.3     
   7 O7             0.1928    -1.2455    -4.5309 O.2     
   8 N8            -1.3777    -0.7939    -2.4818 N.am    
   9 C9            -2.4337    -0.2688    -3.1342 C.2     
  10 O10           -3.6178    -0.9095    -3.1238 O.3     
  11 O11           -2.3171     0.7827    -3.7318 O.2     
  12 C12           -4.7111    -0.2857    -3.8477 C.3     
  13 C13           -5.9656    -1.1527    -3.7231 C.3     
  14 C14           -7.1421    -0.4597    -4.3656 C.ar    
  15 C15           -7.5969    -1.2757    -5.3976 C.ar    
  16 C16           -6.7588    -2.4983    -5.4668 C.ar    
  17 C17           -5.7804    -2.4462    -4.4780 C.ar    
  18 C18           -6.8130    -3.6034    -6.3184 C.ar    
  19 C19           -5.9023    -4.6292    -6.1746 C.ar    
  20 C20           -4.9335    -4.5682    -5.1889 C.ar    
  21 C21           -4.8743    -3.4766    -4.3411 C.ar    
  22 C22           -7.7654     0.7419    -4.1028 C.ar    
  23 C23           -8.8479     1.1421    -4.8658 C.ar    
  24 C24           -9.3070     0.3382    -5.8939 C.ar    
  25 C25           -8.6901    -0.8657    -6.1632 C.ar    
  26 C26            0.7421    -0.5109     1.2415 C.3     
  27 H27            1.0039     1.9031     0.0027 H       
  28 H28           -0.5459     1.8868    -0.8726 H       
  29 H29           -0.5289     1.8773     0.9072 H       
  30 H30           -1.0205    -0.3814     0.0098 H       
  31 H31            1.7103    -0.0491    -1.3098 H       
  32 H32            0.8116    -1.5829    -1.2198 H       
  33 H33           -0.2586     0.9799    -2.4832 H       
  34 H34            2.3429    -0.2237    -4.7709 H       
  35 H35           -1.4708    -1.6334    -2.0048 H       
  36 H36           -4.9083     0.7009    -3.4285 H       
  37 H37           -4.4410    -0.1865    -4.8990 H       
  38 H38           -6.1776    -1.3567    -2.6735 H       
  39 H39           -7.5679    -3.6552    -7.0890 H       
  40 H40           -5.9458    -5.4834    -6.8339 H       
  41 H41           -4.2231    -5.3744    -5.0805 H       
  42 H42           -4.1173    -3.4309    -3.5722 H       
  43 H43           -7.4085     1.3709    -3.3007 H       
  44 H44           -9.3350     2.0835    -4.6588 H       
  45 H45          -10.1523     0.6541    -6.4872 H       
  46 H46           -9.0515    -1.4901    -6.9669 H       
  47 H47            0.2319    -0.1594     2.1383 H       
  48 H48            0.7568    -1.6008     1.2356 H       
  49 H49            1.7647    -0.1336     1.2338 H       
@<TRIPOS>BOND
   1    1    2 1
   2    1   27 1
   3    1   28 1
   4    1   29 1
   5    2    3 1
   6    2   26 1
   7    2   30 1
   8    3    4 1
   9    3   31 1
  10    3   32 1
  11    4    5 1
  12    4    8 1
  13    4   33 1
  14    5    6 1
  15    5    7 2
  16    6   34 1
  17    8    9 am
  18    8   35 1
  19    9   10 1
  20    9   11 2
  21   10   12 1
  22   12   13 1
  23   12   36 1
  24   12   37 1
  25   13   14 1
  26   13   17 1
  27   13   38 1
  28   14   15 ar
  29   14   22 ar
  30   15   16 1
  31   15   25 ar
  32   16   17 ar
  33   16   18 ar
  34   17   21 ar
  35   18   19 ar
  36   18   39 1
  37   19   20 ar
  38   19   40 1
  39   20   21 ar
  40   20   41 1
  41   21   42 1
  42   22   23 ar
  43   22   43 1
  44   23   24 ar
  45   23   44 1
  46   24   25 ar
  47   24   45 1
  48   25   46 1
  49   26   47 1
  50   26   48 1
  51   26   49 1

#	End of record

