#	Name: ASD01885464
#	Creating user name:	WinNT
#	Creation time:	15. 06. 2019 19:49

#	Modifying user name:	WinNT
#	Modification time:	15. 06. 2019 19:49

#	Program:	/corina/corina34_cracker 3.40 0067  02.08.2006

@<TRIPOS>MOLECULE
ASD01885464
  63   67    0    0    0
SMALL
NO_CHARGES


@<TRIPOS>ATOM
   1 C1             0.1975     1.2191     0.1466 C.ar    
   2 C2             0.3124    -0.1708     0.1692 C.ar    
   3 N3            -0.7478    -1.0158     0.2363 N.2     
   4 C4            -1.8535    -0.9010    -0.4042 C.2     
   5 C5            -2.1212     0.2640    -1.3205 C.3     
   6 C6            -2.1111     1.5246    -0.4932 C.2     
   7 N7            -1.0170     1.8919     0.1728 N.am    
   8 C8             1.3512     2.0003     0.0890 C.ar    
   9 C9             2.6031     1.4106     0.0486 C.ar    
  10 C10            2.7184     0.0242     0.0654 C.ar    
  11 C11            1.5901    -0.7571     0.1250 C.ar    
  12 C12           -2.8882    -1.9361    -0.2394 C.ar    
  13 O13           -3.1087     2.2120    -0.4350 O.2     
  14 C14           -2.6211    -3.0806     0.5183 C.ar    
  15 C15           -3.5913    -4.0499     0.6727 C.ar    
  16 C16           -4.8300    -3.8966     0.0806 C.ar    
  17 C17           -5.1098    -2.7598    -0.6779 C.ar    
  18 C18           -4.1410    -1.7750    -0.8345 C.ar    
  19 N19            3.7506     2.2077    -0.0095 N.am    
  20 C20            4.8770     1.8141     0.6173 C.2     
  21 C21           -6.4415    -2.5994    -1.3125 C.ar    
  22 O22            4.8684     0.8185     1.3139 O.2     
  23 O23            6.0118     2.5241     0.4717 O.3     
  24 C24            7.1863     2.0415     1.1759 C.3     
  25 C25           -7.4302    -3.5757    -1.1629 C.ar    
  26 C26           -8.6548    -3.3868    -1.7700 C.ar    
  27 N27           -8.8972    -2.3036    -2.4829 N.ar    
  28 C28           -7.9917    -1.3586    -2.6488 C.ar    
  29 C29           -6.7430    -1.4651    -2.0714 C.ar    
  30 C30           -8.3277    -0.1437    -3.4746 C.3     
  31 C31           -9.7295    -4.4321    -1.6171 C.3     
  32 C32            8.3509     2.9560     0.8959 C.ar    
  33 C33            8.5897     4.0422     1.7169 C.ar    
  34 C34            9.6580     4.8811     1.4600 C.ar    
  35 C35           10.4877     4.6335     0.3824 C.ar    
  36 C36           10.2494     3.5467    -0.4380 C.ar    
  37 C37            9.1837     2.7054    -0.1786 C.ar    
  38 H38           -1.3443     0.3183    -2.0831 H       
  39 H39           -3.0951     0.1429    -1.7947 H       
  40 H40           -1.0735     2.6900     0.7211 H       
  41 H41            1.2671     3.0769     0.0754 H       
  42 H42            3.6942    -0.4375     0.0313 H       
  43 H43            1.6850    -1.8329     0.1377 H       
  44 H44           -1.6543    -3.2064     0.9830 H       
  45 H45           -3.3811    -4.9324     1.2586 H       
  46 H46           -5.5842    -4.6596     0.2051 H       
  47 H47           -4.3537    -0.8932    -1.4206 H       
  48 H48            3.7360     3.0438    -0.5009 H       
  49 H49            6.9864     2.0254     2.2473 H       
  50 H50            7.4255     1.0340     0.8357 H       
  51 H51           -7.2385    -4.4651    -0.5810 H       
  52 H52           -6.0066    -0.6876    -2.2110 H       
  53 H53           -8.7528     0.6267    -2.8312 H       
  54 H54           -7.4219     0.2365    -3.9469 H       
  55 H55           -9.0515    -0.4154    -4.2429 H       
  56 H56          -10.3328    -4.2070    -0.7376 H       
  57 H57          -10.3646    -4.4325    -2.5029 H       
  58 H58           -9.2685    -5.4128    -1.5001 H       
  59 H59            7.9415     4.2357     2.5587 H       
  60 H60            9.8442     5.7302     2.1009 H       
  61 H61           11.3219     5.2893     0.1813 H       
  62 H62           10.8974     3.3535    -1.2801 H       
  63 H63            8.9975     1.8563    -0.8196 H       
@<TRIPOS>BOND
   1    1    2 ar
   2    1    8 ar
   3    1    7 1
   4    2    3 1
   5    2   11 ar
   6    3    4 2
   7    4    5 1
   8    4   12 1
   9    5    6 1
  10    5   38 1
  11    5   39 1
  12    6    7 am
  13    6   13 2
  14    7   40 1
  15    8    9 ar
  16    8   41 1
  17    9   10 ar
  18    9   19 1
  19   10   11 ar
  20   10   42 1
  21   11   43 1
  22   12   14 ar
  23   12   18 ar
  24   14   15 ar
  25   14   44 1
  26   15   16 ar
  27   15   45 1
  28   16   17 ar
  29   16   46 1
  30   17   18 ar
  31   17   21 1
  32   18   47 1
  33   19   20 am
  34   19   48 1
  35   20   22 2
  36   20   23 1
  37   21   25 ar
  38   21   29 ar
  39   23   24 1
  40   24   32 1
  41   24   49 1
  42   24   50 1
  43   25   26 ar
  44   25   51 1
  45   26   27 ar
  46   26   31 1
  47   27   28 ar
  48   28   29 ar
  49   28   30 1
  50   29   52 1
  51   30   53 1
  52   30   54 1
  53   30   55 1
  54   31   56 1
  55   31   57 1
  56   31   58 1
  57   32   33 ar
  58   32   37 ar
  59   33   34 ar
  60   33   59 1
  61   34   35 ar
  62   34   60 1
  63   35   36 ar
  64   35   61 1
  65   36   37 ar
  66   36   62 1
  67   37   63 1

#	End of record

