#	Name: ASD01209264
#	Creating user name:	WinNT
#	Creation time:	15. 06. 2019 19:11

#	Modifying user name:	WinNT
#	Modification time:	15. 06. 2019 19:11

#	Program:	/corina/corina34_cracker 3.40 0067  02.08.2006

@<TRIPOS>MOLECULE
ASD01209264
  75   77    0    0    0
SMALL
NO_CHARGES


@<TRIPOS>ATOM
   1 O1             0.8435     4.8444     0.3833 O.3     
   2 O2             0.4096     3.0183     2.2242 O.3     
   3 C3            -1.2552     6.2180    -9.6597 C.ar    
   4 C4            -2.6242     6.1949    -9.8819 C.ar    
   5 C5            -3.4762     5.6488    -8.9323 C.ar    
   6 C6            -2.9622     5.1242    -7.7579 C.ar    
   7 C7            -1.5856     5.1454    -7.5305 C.ar    
   8 C8            -0.7323     5.6903    -8.4904 C.ar    
   9 O9            -4.8166     5.6287    -9.1549 O.3     
  10 C10           -1.0324     4.5867    -6.2786 C.2     
  11 N11           -1.8580     4.0558    -5.3550 N.am    
  12 O12            0.1670     4.6061    -6.0822 O.2     
  13 C13           -1.3475     3.6130    -4.1367 C.ar    
  14 P14           -0.0596     3.5745     0.7880 P.3     
  15 O15           -1.4808     3.9816     0.8570 O.2     
  16 C16            0.1373     2.2648    -0.4647 C.3     
  17 O17           -0.4252     6.7540   -10.5929 O.3     
  18 C18            0.9575     6.8589   -10.2478 C.3     
  19 C19            1.6033     7.9801   -11.0642 C.3     
  20 O20            1.5850     7.6316   -12.4499 O.3     
  21 C21            2.1679     8.6172   -13.3049 C.3     
  22 C22            1.6612     5.5351   -10.5533 C.3     
  23 C23           -5.5868     6.5320    -8.4935 C.ar    
  24 C24           -6.9587     6.5587    -8.6997 C.ar    
  25 C25           -7.7393     7.4777    -8.0257 C.ar    
  26 C26           -7.1548     8.3704    -7.1463 C.ar    
  27 C27           -5.7880     8.3458    -6.9390 C.ar    
  28 C28           -5.0034     7.4254    -7.6065 C.ar    
  29 S29           -8.1535     9.5417    -6.2887 S.o2    
  30 O30           -7.2690    10.6180    -6.0088 O.2     
  31 O31           -9.2835     9.7221    -7.1311 O.2     
  32 C32           -8.6301     8.6947    -4.7570 C.3     
  33 C33            0.2793     3.7721     3.4312 C.3     
  34 C34            0.8195     2.9527     4.6050 C.3     
  35 C35            0.8264     6.0748     1.1098 C.3     
  36 C36            1.7962     7.0641     0.4604 C.3     
  37 N37           -0.0737     3.8238    -3.8336 N.ar    
  38 C38            0.4074     3.4022    -2.6766 C.ar    
  39 C39           -0.4154     2.7432    -1.7826 C.ar    
  40 N40           -1.6862     2.5309    -2.0809 N.ar    
  41 C41           -2.1748     2.9530    -3.2317 C.ar    
  42 H42           -3.0282     6.6035   -10.7963 H       
  43 H43           -3.6259     4.6999    -7.0191 H       
  44 H44            0.3338     5.7084    -8.3184 H       
  45 H45           -2.8076     3.9821    -5.5385 H       
  46 H46            1.1949     2.0273    -0.5790 H       
  47 H47           -0.4030     1.3733    -0.1463 H       
  48 H48            1.0507     7.0831    -9.1852 H       
  49 H49            1.0467     8.9053   -10.9148 H       
  50 H50            2.6341     8.1195   -10.7382 H       
  51 H51            1.6230     9.5556   -13.2020 H       
  52 H52            3.2104     8.7698   -13.0254 H       
  53 H53            2.1150     8.2779   -14.3394 H       
  54 H54            1.5679     5.3109   -11.6159 H       
  55 H55            2.7159     5.6151   -10.2900 H       
  56 H56            1.2011     4.7363    -9.9717 H       
  57 H57           -7.4157     5.8620    -9.3867 H       
  58 H58           -8.8072     7.4992    -8.1861 H       
  59 H59           -5.3338     9.0444    -6.2519 H       
  60 H60           -3.9358     7.4066    -7.4443 H       
  61 H61           -7.7349     8.4328    -4.1929 H       
  62 H62           -9.2574     9.3542    -4.1573 H       
  63 H63           -9.1843     7.7882    -5.0004 H       
  64 H64            0.8463     4.6989     3.3437 H       
  65 H65           -0.7717     4.0040     3.6031 H       
  66 H66            0.7201     3.5277     5.5257 H       
  67 H67            0.2525     2.0259     4.6925 H       
  68 H68            1.8705     2.7209     4.4331 H       
  69 H69           -0.1808     6.4912     1.0958 H       
  70 H70            1.1298     5.8922     2.1407 H       
  71 H71            1.4929     7.2467    -0.5705 H       
  72 H72            1.7833     8.0026     1.0146 H       
  73 H73            2.8035     6.6478     0.4744 H       
  74 H74            1.4446     3.5736    -2.4293 H       
  75 H75           -3.2127     2.7798    -3.4747 H       
@<TRIPOS>BOND
   1    1   35 1
   2    1   14 1
   3    2   33 1
   4    2   14 1
   5    3    4 ar
   6    3   17 1
   7    3    8 ar
   8    4    5 ar
   9    4   42 1
  10    5    6 ar
  11    5    9 1
  12    6    7 ar
  13    6   43 1
  14    7    8 ar
  15    7   10 1
  16    8   44 1
  17    9   23 1
  18   10   11 am
  19   10   12 2
  20   11   13 1
  21   11   45 1
  22   13   37 ar
  23   13   41 ar
  24   14   15 2
  25   14   16 1
  26   16   39 1
  27   16   46 1
  28   16   47 1
  29   17   18 1
  30   18   19 1
  31   18   22 1
  32   18   48 1
  33   19   20 1
  34   19   49 1
  35   19   50 1
  36   20   21 1
  37   21   51 1
  38   21   52 1
  39   21   53 1
  40   22   54 1
  41   22   55 1
  42   22   56 1
  43   23   24 ar
  44   23   28 ar
  45   24   25 ar
  46   24   57 1
  47   25   26 ar
  48   25   58 1
  49   26   27 ar
  50   26   29 1
  51   27   28 ar
  52   27   59 1
  53   28   60 1
  54   29   30 2
  55   29   31 2
  56   29   32 1
  57   32   61 1
  58   32   62 1
  59   32   63 1
  60   33   34 1
  61   33   64 1
  62   33   65 1
  63   34   66 1
  64   34   67 1
  65   34   68 1
  66   35   36 1
  67   35   69 1
  68   35   70 1
  69   36   71 1
  70   36   72 1
  71   36   73 1
  72   37   38 ar
  73   38   39 ar
  74   38   74 1
  75   39   40 ar
  76   40   41 ar
  77   41   75 1

#	End of record

