#	Name: ASD03731798
#	Creating user name:	WinNT
#	Creation time:	15. 06. 2019 20:46

#	Modifying user name:	WinNT
#	Modification time:	15. 06. 2019 20:46

#	Program:	/corina/corina34_cracker 3.40 0067  02.08.2006

@<TRIPOS>MOLECULE
ASD03731798
  43   45    0    0    0
SMALL
NO_CHARGES


@<TRIPOS>ATOM
   1 C1             0.1066     1.3991     0.8815 C.2     
   2 C2             0.0938    -0.0576     0.6439 C.ar    
   3 C3             0.2781    -0.9428     1.7093 C.ar    
   4 C4             0.2651    -2.3011     1.4837 C.ar    
   5 C5             0.0694    -2.7921     0.1979 C.ar    
   6 C6            -0.1143    -1.9147    -0.8647 C.ar    
   7 C7            -0.1084    -0.5552    -0.6462 C.ar    
   8 O8             0.2776     1.8302     2.0054 O.2     
   9 N9            -0.0658     2.2514    -0.1482 N.am    
  10 S10           -0.0515     3.8857     0.1184 S.o2    
  11 O11           -0.2841     4.4520    -1.1640 O.2     
  12 O12           -0.9751     4.0755     1.1815 O.2     
  13 C13            1.6391     4.2391     0.6731 C.3     
  14 O14            0.0581    -4.1313    -0.0206 O.3     
  15 C15           -3.5071    -4.7478     0.4273 C.ar    
  16 C16           -2.2941    -4.0730     0.3136 C.ar    
  17 C17           -1.1274    -4.7861     0.0918 C.ar    
  18 C18           -1.1692    -6.1698    -0.0161 C.ar    
  19 C19           -2.3727    -6.8396     0.0971 C.ar    
  20 C20           -3.5403    -6.1365     0.3178 C.ar    
  21 C21           -4.7598    -3.9905     0.6710 C.ar    
  22 C22           -5.9737    -4.6650     0.7848 C.ar    
  23 C23           -7.1358    -3.9556     1.0114 C.ar    
  24 C24           -7.0969    -2.5777     1.1255 C.ar    
  25 C25           -5.8946    -1.9030     1.0133 C.ar    
  26 C26           -4.7256    -2.6028     0.7924 C.ar    
  27 H27            0.4309    -0.5621     2.7084 H       
  28 H28            0.4074    -2.9859     2.3066 H       
  29 H29           -0.2661    -2.2999    -1.8621 H       
  30 H30           -0.2556     0.1257    -1.4714 H       
  31 H31           -0.1982     1.9075    -1.0455 H       
  32 H32            2.3450     3.9474    -0.1045 H       
  33 H33            1.7401     5.3056     0.8741 H       
  34 H34            1.8479     3.6765     1.5830 H       
  35 H35           -2.2633    -2.9967     0.3974 H       
  36 H36           -0.2586    -6.7241    -0.1894 H       
  37 H37           -2.4000    -7.9159     0.0125 H       
  38 H38           -4.4793    -6.6629     0.4058 H       
  39 H39           -6.0053    -5.7408     0.6956 H       
  40 H40           -8.0773    -4.4774     1.0995 H       
  41 H41           -8.0086    -2.0265     1.3024 H       
  42 H42           -5.8699    -0.8270     1.1028 H       
  43 H43           -3.7867    -2.0755     0.7098 H       
@<TRIPOS>BOND
   1    1    2 1
   2    1    8 2
   3    1    9 am
   4    2    3 ar
   5    2    7 ar
   6    3    4 ar
   7    3   27 1
   8    4    5 ar
   9    4   28 1
  10    5    6 ar
  11    5   14 1
  12    6    7 ar
  13    6   29 1
  14    7   30 1
  15    9   10 am
  16    9   31 1
  17   10   11 2
  18   10   12 2
  19   10   13 1
  20   13   32 1
  21   13   33 1
  22   13   34 1
  23   14   17 1
  24   15   16 ar
  25   15   20 ar
  26   15   21 1
  27   16   17 ar
  28   16   35 1
  29   17   18 ar
  30   18   19 ar
  31   18   36 1
  32   19   20 ar
  33   19   37 1
  34   20   38 1
  35   21   22 ar
  36   21   26 ar
  37   22   23 ar
  38   22   39 1
  39   23   24 ar
  40   23   40 1
  41   24   25 ar
  42   24   41 1
  43   25   26 ar
  44   25   42 1
  45   26   43 1

#	End of record

