#	Name: ASD03081327
#	Creating user name:	WinNT
#	Creation time:	15. 06. 2019 20:27

#	Modifying user name:	WinNT
#	Modification time:	15. 06. 2019 20:27

#	Program:	/corina/corina34_cracker 3.40 0067  02.08.2006

@<TRIPOS>MOLECULE
ASD03081327
  31   33    0    0    0
SMALL
NO_CHARGES


@<TRIPOS>ATOM
   1 C1            -0.0184     1.5028     0.0103 C.2     
   2 C2             0.1498     0.0056    -0.0241 C.3     
   3 C3             1.1643     2.3752     0.0119 C.ar    
   4 C4             1.0106     3.7643    -0.0796 C.ar    
   5 C5             2.1101     4.5739    -0.0775 C.ar    
   6 C6             3.3893     4.0167     0.0155 C.ar    
   7 C7             3.5440     2.6298     0.1064 C.ar    
   8 C8             2.4456     1.8186     0.1108 C.ar    
   9 O9             5.8629     4.4940     0.1007 O.3     
  10 C10            4.5769     4.8927     0.0171 C.2     
  11 N11            4.5757     6.2046    -0.0634 N.2     
  12 N12            5.7878     6.6352    -0.0341 N.2     
  13 C13            6.6110     5.6145     0.0664 C.2     
  14 C14            8.8467     4.5180     0.2375 C.ar    
  15 C15            8.0852     5.6835     0.1305 C.ar    
  16 C16            8.7429     6.9188     0.0844 C.ar    
  17 C17           10.1252     6.9285     0.1474 C.ar    
  18 C18           10.8067     5.7295     0.2528 C.ar    
  19 N19           10.1606     4.5798     0.2941 N.ar    
  20 O20           -1.1298     1.9878     0.0316 O.2     
  21 H21            1.2057    -0.2389    -0.1402 H       
  22 H22           -0.2223    -0.4233     0.9063 H       
  23 H23           -0.4123    -0.4040    -0.8634 H       
  24 H24            0.0228     4.1948    -0.1521 H       
  25 H25            1.9918     5.6451    -0.1480 H       
  26 H26            4.5325     2.2005     0.1778 H       
  27 H27            2.5651     0.7479     0.1859 H       
  28 H28            8.3535     3.5581     0.2786 H       
  29 H29            8.1857     7.8403     0.0015 H       
  30 H30           10.6664     7.8626     0.1143 H       
  31 H31           11.8856     5.7345     0.3018 H       
@<TRIPOS>BOND
   1    1    2 1
   2    1    3 1
   3    1   20 2
   4    2   21 1
   5    2   22 1
   6    2   23 1
   7    3    4 ar
   8    3    8 ar
   9    4    5 ar
  10    4   24 1
  11    5    6 ar
  12    5   25 1
  13    6    7 ar
  14    6   10 1
  15    7    8 ar
  16    7   26 1
  17    8   27 1
  18    9   10 1
  19    9   13 1
  20   10   11 2
  21   11   12 1
  22   12   13 2
  23   13   15 1
  24   14   15 ar
  25   14   19 ar
  26   14   28 1
  27   15   16 ar
  28   16   17 ar
  29   16   29 1
  30   17   18 ar
  31   17   30 1
  32   18   19 ar
  33   18   31 1

#	End of record

