#	Name: ASD01510042
#	Creating user name:	WinNT
#	Creation time:	15. 06. 2019 19:21

#	Modifying user name:	WinNT
#	Modification time:	15. 06. 2019 19:21

#	Program:	/corina/corina34_cracker 3.40 0067  02.08.2006

@<TRIPOS>MOLECULE
ASD01510042
  65   68    0    0    0
SMALL
NO_CHARGES


@<TRIPOS>ATOM
   1 C1            -0.0173     1.4248     0.0099 C.3     
   2 O2             0.0021    -0.0041     0.0020 O.3     
   3 C3             0.6046    -0.6059    -1.0536 C.ar    
   4 N4             1.1457     0.1215    -2.0251 N.ar    
   5 C5             1.7358    -0.4582    -3.0592 C.ar    
   6 N6             1.8122    -1.7755    -3.1711 N.ar    
   7 C7             1.2945    -2.5695    -2.2398 C.ar    
   8 C8             0.6699    -1.9970    -1.1318 C.ar    
   9 S9            -0.0321    -3.0062     0.1305 S.3     
  10 C10            1.3595    -3.1728     1.1983 C.ar    
  11 N11            2.4993    -2.5802     0.8719 N.ar    
  12 C12            3.5671    -2.6828     1.6495 C.ar    
  13 C13            3.4860    -3.4186     2.8155 C.ar    
  14 C14            2.2718    -4.0320     3.1337 C.ar    
  15 N15            1.2390    -3.8833     2.3110 N.ar    
  16 N16            2.1449    -4.7800     4.2928 N.pl3   
  17 O17            1.3772    -3.9177    -2.3622 O.3     
  18 C18            2.0379    -4.4244    -3.5236 C.3     
  19 N19            2.2883     0.3358    -4.0522 N.pl3   
  20 C20            2.9458    -0.2846    -5.2050 C.3     
  21 C21            1.9342    -0.5102    -6.2989 C.ar    
  22 C22            1.7119     0.4718    -7.2466 C.ar    
  23 C23            0.7851     0.2674    -8.2504 C.ar    
  24 C24            0.0772    -0.9244    -8.3071 C.ar    
  25 C25            0.3021    -1.9081    -7.3551 C.ar    
  26 C26            1.2341    -1.7011    -6.3566 C.ar    
  27 O27           -0.8354    -1.1277    -9.2934 O.3     
  28 C28           -1.5270    -2.3782    -9.2897 C.3     
  29 C29            2.2147     1.7953    -3.9487 C.3     
  30 C30            3.4265     2.3086    -3.2146 C.ar    
  31 C31            4.5677     2.6470    -3.9182 C.ar    
  32 C32            5.6799     3.1178    -3.2475 C.ar    
  33 C33            5.6511     3.2510    -1.8669 C.ar    
  34 C34            4.5049     2.9108    -1.1633 C.ar    
  35 C35            3.3934     2.4458    -1.8392 C.ar    
  36 O36            6.7441     3.7135    -1.2048 O.3     
  37 C37            6.6428     3.8247     0.2162 C.3     
  38 H38            1.0053     1.8021     0.0021 H       
  39 H39           -0.5445     1.7859    -0.8732 H       
  40 H40           -0.5275     1.7763     0.9067 H       
  41 H41            4.4913    -2.1964     1.3743 H       
  42 H42            4.3421    -3.5179     3.4664 H       
  43 H43            2.9023    -4.8810     4.8903 H       
  44 H44            1.2985    -5.2029     4.5069 H       
  45 H45            1.5168    -4.0806    -4.4171 H       
  46 H46            3.0667    -4.0650    -3.5421 H       
  47 H47            2.0341    -5.5141    -3.4974 H       
  48 H48            3.7353     0.3724    -5.5700 H       
  49 H49            3.3773    -1.2400    -4.9064 H       
  50 H50            2.2630     1.3995    -7.2018 H       
  51 H51            0.6115     1.0349    -8.9902 H       
  52 H52           -0.2477    -2.8367    -7.3972 H       
  53 H53            1.4095    -2.4666    -5.6152 H       
  54 H54           -2.2239    -2.4104   -10.1272 H       
  55 H55           -0.8075    -3.1915    -9.3843 H       
  56 H56           -2.0770    -2.4864    -8.3549 H       
  57 H57            2.1845     2.2293    -4.9482 H       
  58 H58            1.3136     2.0759    -3.4034 H       
  59 H59            4.5897     2.5428    -4.9929 H       
  60 H60            6.5711     3.3816    -3.7975 H       
  61 H61            4.4800     3.0136    -0.0885 H       
  62 H62            2.5008     2.1809    -1.2919 H       
  63 H63            7.5818     4.2048     0.6188 H       
  64 H64            5.8346     4.5105     0.4703 H       
  65 H65            6.4349     2.8438     0.6436 H       
@<TRIPOS>BOND
   1    1    2 1
   2    1   38 1
   3    1   39 1
   4    1   40 1
   5    2    3 1
   6    3    4 ar
   7    3    8 ar
   8    4    5 ar
   9    5    6 ar
  10    5   19 1
  11    6    7 ar
  12    7    8 ar
  13    7   17 1
  14    8    9 1
  15    9   10 1
  16   10   11 ar
  17   10   15 ar
  18   11   12 ar
  19   12   13 ar
  20   12   41 1
  21   13   14 ar
  22   13   42 1
  23   14   15 ar
  24   14   16 1
  25   16   43 1
  26   16   44 1
  27   17   18 1
  28   18   45 1
  29   18   46 1
  30   18   47 1
  31   19   20 1
  32   19   29 1
  33   20   21 1
  34   20   48 1
  35   20   49 1
  36   21   22 ar
  37   21   26 ar
  38   22   23 ar
  39   22   50 1
  40   23   24 ar
  41   23   51 1
  42   24   25 ar
  43   24   27 1
  44   25   26 ar
  45   25   52 1
  46   26   53 1
  47   27   28 1
  48   28   54 1
  49   28   55 1
  50   28   56 1
  51   29   30 1
  52   29   57 1
  53   29   58 1
  54   30   31 ar
  55   30   35 ar
  56   31   32 ar
  57   31   59 1
  58   32   33 ar
  59   32   60 1
  60   33   34 ar
  61   33   36 1
  62   34   35 ar
  63   34   61 1
  64   35   62 1
  65   36   37 1
  66   37   63 1
  67   37   64 1
  68   37   65 1

#	End of record

