#	Name: ASD02900012
#	Creating user name:	WinNT
#	Creation time:	15. 06. 2019 20:26

#	Modifying user name:	WinNT
#	Modification time:	15. 06. 2019 20:26

#	Program:	/corina/corina34_cracker 3.40 0067  02.08.2006

@<TRIPOS>MOLECULE
ASD02900012
  36   38    0    0    0
SMALL
NO_CHARGES


@<TRIPOS>ATOM
   1 F1             2.2867    -1.7135    -4.9083 F       
   2 O2            -2.8939    -5.3261     1.1678 O.3     
   3 N3            -3.7471    -2.5161     0.6609 N.3     
   4 N4            -4.5989     0.1392    -1.4044 N.1     
   5 C5            -2.0009    -1.9820    -0.3559 C.3     
   6 C6            -2.3594    -3.0112     0.7253 C.3     
   7 C7            -3.4820    -2.1205    -0.7349 C.3     
   8 C8            -1.0455    -2.4942    -1.4028 C.ar    
   9 C9            -2.2074    -4.4611     0.2609 C.3     
  10 C10           -1.4784    -3.4162    -2.3386 C.ar    
  11 C11            0.2594    -2.0362    -1.4278 C.ar    
  12 C12           -4.1124    -0.8451    -1.1128 C.1     
  13 C13           -0.6078    -3.8886    -3.2997 C.ar    
  14 C14            1.1384    -2.5011    -2.3849 C.ar    
  15 C15            0.7094    -3.4347    -3.3263 C.ar    
  16 C16            1.6501    -3.9393    -4.3567 C.ar    
  17 C17            2.4081    -3.0434    -5.1124 C.ar    
  18 C18            1.7847    -5.3092    -4.5699 C.ar    
  19 C19            3.2830    -3.5206    -6.0704 C.ar    
  20 C20            2.6617    -5.7735    -5.5295 C.ar    
  21 C21            3.4067    -4.8820    -6.2801 C.ar    
  22 H22           -1.7268    -1.0019     0.0343 H       
  23 H23           -1.8747    -2.8216     1.6830 H       
  24 H24           -3.6733    -2.9158    -1.4554 H       
  25 H25           -4.4056    -3.2795     0.7015 H       
  26 H26           -1.1503    -4.7257     0.2361 H       
  27 H27           -2.6325    -4.5695    -0.7369 H       
  28 H28           -2.4995    -3.7673    -2.3170 H       
  29 H29            0.5910    -1.3132    -0.6973 H       
  30 H30           -0.9466    -4.6090    -4.0295 H       
  31 H31            2.1571    -2.1429    -2.4036 H       
  32 H32           -2.8397    -6.2631     0.9348 H       
  33 H33            1.2039    -6.0072    -3.9851 H       
  34 H34            3.8705    -2.8292    -6.6563 H       
  35 H35            2.7661    -6.8356    -5.6950 H       
  36 H36            4.0911    -5.2506    -7.0298 H       
@<TRIPOS>BOND
   1    1   17 1
   2    2    9 1
   3    2   32 1
   4    3    6 1
   5    3    7 1
   6    3   25 1
   7    4   12 3
   8    5    6 1
   9    5    8 1
  10    5   22 1
  11    5    7 1
  12    6    9 1
  13    6   23 1
  14    7   12 1
  15    7   24 1
  16    8   10 ar
  17    8   11 ar
  18    9   26 1
  19    9   27 1
  20   10   13 ar
  21   10   28 1
  22   11   14 ar
  23   11   29 1
  24   13   15 ar
  25   13   30 1
  26   14   15 ar
  27   14   31 1
  28   15   16 1
  29   16   17 ar
  30   16   18 ar
  31   17   19 ar
  32   18   20 ar
  33   18   33 1
  34   19   21 ar
  35   19   34 1
  36   20   21 ar
  37   20   35 1
  38   21   36 1

#	End of record

