#	Name: ASD03430246
#	Creating user name:	WinNT
#	Creation time:	15. 06. 2019 20:40

#	Modifying user name:	WinNT
#	Modification time:	15. 06. 2019 20:40

#	Program:	/corina/corina34_cracker 3.40 0067  02.08.2006

@<TRIPOS>MOLECULE
ASD03430246
  46   51    0    0    0
SMALL
NO_CHARGES


@<TRIPOS>ATOM
   1 C1            -0.0167     1.3821     0.0096 C.ar    
   2 C2             0.0021    -0.0041     0.0020 C.ar    
   3 C3             1.2028    -0.6818    -0.0162 C.ar    
   4 C4             2.4087     0.0129    -0.0162 C.ar    
   5 C5             2.3861     1.4039    -0.0119 C.ar    
   6 C6             1.1815     2.0867     0.0020 C.ar    
   7 O7             3.4713    -0.8419    -0.0074 O.3     
   8 C8             1.5511    -2.1458    -0.0509 C.3     
   9 C9             3.0363    -2.1458    -0.4380 C.3     
  10 C10            0.4268    -3.8598     1.0070 C.ar    
  11 C11            1.3158    -2.8198     1.2682 C.ar    
  12 C12            0.7167    -2.9064    -1.0410 C.2     
  13 N13            0.0966    -3.8836    -0.3502 N.am    
  14 O14            0.6192    -2.6843    -2.2294 O.2     
  15 C15            1.7821    -2.6009     2.5448 C.ar    
  16 C16            1.3690    -3.4172     3.5832 C.ar    
  17 C17            0.4871    -4.4527     3.3353 C.ar    
  18 C18            0.0170    -4.6765     2.0576 C.ar    
  19 C19           -0.8166    -4.8579    -0.9526 C.3     
  20 O20           -1.2113     2.0356     0.0189 O.3     
  21 C21           -1.1865     3.4165     0.3963 C.3     
  22 C22           -0.0349     4.0988    -0.3543 C.3     
  23 O23            1.1866     3.4483     0.0115 O.3     
  24 C24           -2.2242    -4.3214    -0.9082 C.2     
  25 N25           -2.8031    -3.5990    -1.8248 N.2     
  26 N26           -4.0034    -3.3206    -1.4542 N.2     
  27 C27           -4.2310    -3.8559    -0.2885 C.2     
  28 O28           -3.1143    -4.5051     0.0814 O.3     
  29 C29           -5.5135    -3.7681     0.4980 C.3     
  30 F30           -6.4846    -3.1111    -0.2652 F       
  31 F31           -5.9587    -5.0573     0.8095 F       
  32 F32           -5.2877    -3.0545     1.6800 F       
  33 H33           -0.9268    -0.5550     0.0107 H       
  34 H34            3.3148     1.9551    -0.0190 H       
  35 H35            3.1554    -2.2571    -1.5158 H       
  36 H36            3.5752    -2.9292     0.0949 H       
  37 H37            2.4713    -1.7916     2.7361 H       
  38 H38            1.7349    -3.2459     4.5848 H       
  39 H39            0.1649    -5.0898     4.1457 H       
  40 H40           -0.6714    -5.4876     1.8718 H       
  41 H41           -0.5276    -5.0346    -1.9886 H       
  42 H42           -0.7671    -5.7943    -0.3969 H       
  43 H43           -2.1315     3.8882     0.1269 H       
  44 H44           -1.0261     3.5010     1.4711 H       
  45 H45           -0.1916     4.0078    -1.4291 H       
  46 H46            0.0118     5.1519    -0.0769 H       
@<TRIPOS>BOND
   1    1    2 ar
   2    1    6 ar
   3    1   20 1
   4    2    3 ar
   5    2   33 1
   6    3    4 ar
   7    3    8 1
   8    4    5 ar
   9    4    7 1
  10    5    6 ar
  11    5   34 1
  12    6   23 1
  13    7    9 1
  14    8    9 1
  15    8   11 1
  16    8   12 1
  17    9   35 1
  18    9   36 1
  19   10   11 ar
  20   10   13 1
  21   10   18 ar
  22   11   15 ar
  23   12   13 am
  24   12   14 2
  25   13   19 1
  26   15   16 ar
  27   15   37 1
  28   16   17 ar
  29   16   38 1
  30   17   18 ar
  31   17   39 1
  32   18   40 1
  33   19   24 1
  34   19   41 1
  35   19   42 1
  36   20   21 1
  37   21   22 1
  38   21   43 1
  39   21   44 1
  40   22   23 1
  41   22   45 1
  42   22   46 1
  43   24   25 2
  44   24   28 1
  45   25   26 1
  46   26   27 2
  47   27   28 1
  48   27   29 1
  49   29   30 1
  50   29   31 1
  51   29   32 1

#	End of record

