#	Name: ASD08070034
#	Creating user name:	WinNT
#	Creation time:	15. 06. 2019 21:14

#	Modifying user name:	WinNT
#	Modification time:	15. 06. 2019 21:14

#	Program:	/corina/corina34_cracker 3.40 0067  02.08.2006

@<TRIPOS>MOLECULE
ASD08070034
  42   42    0    0    0
SMALL
NO_CHARGES


@<TRIPOS>ATOM
   1 C1            -0.0184     1.5085     0.0103 C.2     
   2 C2             0.0021    -0.0041     0.0020 C.3     
   3 C3             1.1419     2.3990     0.0040 C.2     
   4 N4             2.3870     1.8833    -0.0106 N.am    
   5 O5             0.9830     3.6057     0.0120 O.2     
   6 C6             3.5492     2.7753    -0.0169 C.3     
   7 C7             3.8910     3.1778     1.4191 C.3     
   8 C8             4.7438     2.0519    -0.6419 C.3     
   9 C9             4.4497     1.7599    -2.1147 C.3     
  10 C10            2.7462     4.0087     2.0020 C.3     
  11 C11            3.0879     4.4113     3.4380 C.3     
  12 C12           -1.4522    -0.4178     0.0137 C.2     
  13 C13           -2.1781     0.6989     0.0266 C.2     
  14 C14           -1.3188     1.8758     0.0188 C.2     
  15 C15           -1.9812    -1.8289     0.0112 C.3     
  16 C16           -3.6844     0.7398     0.0404 C.3     
  17 C17            5.6443     1.0366    -2.7396 C.3     
  18 H18            0.4927    -0.3709    -0.8995 H       
  19 H19            0.5098    -0.3806     0.8900 H       
  20 H20            2.5136     0.9217    -0.0170 H       
  21 H21            3.3193     3.6674    -0.5994 H       
  22 H22            4.0339     2.2819     2.0233 H       
  23 H23            4.8071     3.7684     1.4226 H       
  24 H24            5.6301     2.6819    -0.5663 H       
  25 H25            4.9181     1.1147    -0.1134 H       
  26 H26            3.5634     1.1299    -2.1902 H       
  27 H27            4.2754     2.6972    -2.6431 H       
  28 H28            2.6032     4.9046     1.3978 H       
  29 H29            1.8300     3.4181     1.9985 H       
  30 H30            2.2723     5.0033     3.8533 H       
  31 H31            3.2309     3.5154     4.0422 H       
  32 H32            4.0040     5.0019     3.4415 H       
  33 H33           -1.6711     2.8966     0.0265 H       
  34 H34           -2.0989    -2.1747     1.0382 H       
  35 H35           -2.9469    -1.8541    -0.4936 H       
  36 H36           -1.2803    -2.4787    -0.5129 H       
  37 H37           -4.0384     0.7438     1.0714 H       
  38 H38           -4.0281     1.6422    -0.4652 H       
  39 H39           -4.0765    -0.1370    -0.4749 H       
  40 H40            6.5306     1.6665    -2.6641 H       
  41 H41            5.8186     0.0993    -2.2112 H       
  42 H42            5.4348     0.8285    -3.7889 H       
@<TRIPOS>BOND
   1    1    2 1
   2    1    3 1
   3    1   14 2
   4    2   12 1
   5    2   18 1
   6    2   19 1
   7    3    4 am
   8    3    5 2
   9    4    6 1
  10    4   20 1
  11    6    7 1
  12    6    8 1
  13    6   21 1
  14    7   10 1
  15    7   22 1
  16    7   23 1
  17    8    9 1
  18    8   24 1
  19    8   25 1
  20    9   17 1
  21    9   26 1
  22    9   27 1
  23   10   11 1
  24   10   28 1
  25   10   29 1
  26   11   30 1
  27   11   31 1
  28   11   32 1
  29   12   13 2
  30   12   15 1
  31   13   14 1
  32   13   16 1
  33   14   33 1
  34   15   34 1
  35   15   35 1
  36   15   36 1
  37   16   37 1
  38   16   38 1
  39   16   39 1
  40   17   40 1
  41   17   41 1
  42   17   42 1

#	End of record

