#	Name: ASD01882300
#	Creating user name:	WinNT
#	Creation time:	15. 06. 2019 19:44

#	Modifying user name:	WinNT
#	Modification time:	15. 06. 2019 19:44

#	Program:	/corina/corina34_cracker 3.40 0067  02.08.2006

@<TRIPOS>MOLECULE
ASD01882300
  56   60    0    0    0
SMALL
NO_CHARGES


@<TRIPOS>ATOM
   1 N1            -0.9863     2.2044    -0.1763 N.3     
   2 C2            -0.4784     0.8294    -0.0796 C.3     
   3 C3            -1.6379    -0.1317    -0.0254 C.2     
   4 C4            -2.2853    -0.3878     1.1955 C.2     
   5 C5            -3.3238    -1.2480     1.2497 C.2     
   6 N6            -3.7593    -1.8796     0.1221 N.pl3   
   7 C7            -3.1470    -1.6492    -1.0854 C.2     
   8 C8            -2.0654    -0.7504    -1.1588 C.2     
   9 C9            -4.7535    -2.7739    -0.1291 C.2     
  10 N10           -4.7221    -3.0482    -1.4077 N.2     
  11 N11           -3.7775    -2.3898    -1.9823 N.2     
  12 C12           -1.3823    -0.4856    -2.4757 C.3     
  13 F13           -0.1781    -1.1957    -2.5276 F       
  14 F14           -2.2127    -0.8987    -3.5231 F       
  15 F15           -1.1221     0.8834    -2.5991 F       
  16 C16           -5.7150    -3.3446     0.8812 C.3     
  17 C17           -6.9537    -2.4507     0.9680 C.3     
  18 C18           -8.1054    -2.9238     1.8572 C.3     
  19 C19           -7.2283    -1.7513     2.3008 C.3     
  20 C20            0.1185     3.1711    -0.2313 C.3     
  21 C21            0.5994     3.3177    -1.6783 C.3     
  22 C22           -0.5395     3.8823    -2.5316 C.3     
  23 O23           -0.9640     5.1342    -1.9889 O.3     
  24 C24           -1.4682     5.0507    -0.6544 C.3     
  25 C25           -0.3667     4.5331     0.2743 C.3     
  26 C26           -1.9097     6.4173    -0.1975 C.ar    
  27 C27           -3.0073     6.5474     0.6327 C.ar    
  28 C28           -3.4123     7.8009     1.0517 C.ar    
  29 C29           -2.7194     8.9243     0.6408 C.ar    
  30 C30           -1.6214     8.7941    -0.1887 C.ar    
  31 C31           -1.2137     7.5403    -0.6042 C.ar    
  32 H32           -1.5981     2.3089    -0.9718 H       
  33 H33            0.1371     0.6074    -0.9513 H       
  34 H34            0.1215     0.7264     0.8246 H       
  35 H35           -1.9497     0.1062     2.0953 H       
  36 H36           -3.8136    -1.4379     2.1934 H       
  37 H37           -6.0115    -4.3476     0.5744 H       
  38 H38           -5.2315    -3.3911     1.8570 H       
  39 H39           -7.2106    -1.9134     0.0551 H       
  40 H40           -9.1200    -2.6975     1.5294 H       
  41 H41           -7.9807    -3.8719     2.3803 H       
  42 H42           -6.5264    -1.9281     3.1159 H       
  43 H43           -7.6658    -0.7537     2.2650 H       
  44 H44            0.9408     2.8209     0.3925 H       
  45 H45            1.4511     3.9971    -1.7120 H       
  46 H46            0.8948     2.3422    -2.0645 H       
  47 H47           -0.1897     4.0289    -3.5535 H       
  48 H48           -1.3757     3.1831    -2.5302 H       
  49 H49           -2.3166     4.3669    -0.6284 H       
  50 H50           -0.7621     4.4269     1.2845 H       
  51 H51            0.4655     5.2371     0.2801 H       
  52 H52           -3.5485     5.6697     0.9538 H       
  53 H53           -4.2702     7.9025     1.6998 H       
  54 H54           -3.0363     9.9037     0.9676 H       
  55 H55           -1.0803     9.6719    -0.5100 H       
  56 H56           -0.3558     7.4386    -1.2523 H       
@<TRIPOS>BOND
   1    1    2 1
   2    1   20 1
   3    1   32 1
   4    2    3 1
   5    2   33 1
   6    2   34 1
   7    3    4 1
   8    3    8 2
   9    4    5 2
  10    4   35 1
  11    5    6 1
  12    5   36 1
  13    6    7 1
  14    6    9 1
  15    7    8 1
  16    7   11 2
  17    8   12 1
  18    9   10 2
  19    9   16 1
  20   10   11 1
  21   12   13 1
  22   12   14 1
  23   12   15 1
  24   16   17 1
  25   16   37 1
  26   16   38 1
  27   17   18 1
  28   17   19 1
  29   17   39 1
  30   18   19 1
  31   18   40 1
  32   18   41 1
  33   19   42 1
  34   19   43 1
  35   20   21 1
  36   20   25 1
  37   20   44 1
  38   21   22 1
  39   21   45 1
  40   21   46 1
  41   22   23 1
  42   22   47 1
  43   22   48 1
  44   23   24 1
  45   24   25 1
  46   24   26 1
  47   24   49 1
  48   25   50 1
  49   25   51 1
  50   26   27 ar
  51   26   31 ar
  52   27   28 ar
  53   27   52 1
  54   28   29 ar
  55   28   53 1
  56   29   30 ar
  57   29   54 1
  58   30   31 ar
  59   30   55 1
  60   31   56 1

#	End of record

