#	Name: ASD08830246
#	Creating user name:	WinNT
#	Creation time:	15. 06. 2019 21:20

#	Modifying user name:	WinNT
#	Modification time:	15. 06. 2019 21:20

#	Program:	/corina/corina34_cracker 3.40 0067  02.08.2006

@<TRIPOS>MOLECULE
ASD08830246
  52   55    0    0    0
SMALL
NO_CHARGES


@<TRIPOS>ATOM
   1 C1            -0.0179     1.4664     0.0101 C.ar    
   2 C2             0.0021    -0.0041     0.0020 C.2     
   3 C3            -1.2926    -0.7753     0.0102 C.3     
   4 O4             1.0604    -0.5961    -0.0113 O.2     
   5 C5            -1.2501     2.1494     0.0314 C.ar    
   6 C6             1.1775     2.1721     0.0025 C.ar    
   7 C7             1.1498     3.5742     0.0108 C.ar    
   8 C8            -0.0981     4.2488     0.0267 C.ar    
   9 C9            -1.2933     3.5050     0.0397 C.ar    
  10 C10            2.3394     4.3245     0.0039 C.ar    
  11 C11            2.2782     5.6844     0.0127 C.ar    
  12 C12            1.0525     6.3463     0.0288 C.ar    
  13 C13           -0.1197     5.6527     0.0354 C.ar    
  14 C14           -0.9927    -2.2755    -0.0007 C.3     
  15 N15           -2.2547    -3.0273     0.0073 N.3     
  16 C16           -2.0181    -4.4563    -0.2409 C.3     
  17 C17           -3.3444    -5.2143    -0.1457 C.3     
  18 N18           -4.2921    -4.6626    -1.1240 N.3     
  19 C19           -4.5287    -3.2336    -0.8758 C.3     
  20 C20           -3.2025    -2.4756    -0.9710 C.3     
  21 C21           -5.5542    -5.4144    -1.1160 C.3     
  22 C22           -6.5804    -4.6819    -1.9415 C.ar    
  23 C23           -6.7633    -5.0269    -3.2674 C.ar    
  24 N24           -7.2973    -3.7230    -1.3891 N.ar    
  25 C25           -8.2063    -3.0552    -2.0725 C.ar    
  26 C26           -8.4409    -3.3412    -3.4039 C.ar    
  27 C27           -7.7099    -4.3469    -4.0180 C.ar    
  28 H28           -1.8592    -0.5245     0.9070 H       
  29 H29           -1.8762    -0.5150    -0.8728 H       
  30 H30           -2.1718     1.5865     0.0409 H       
  31 H31            2.1206     1.6460    -0.0094 H       
  32 H32           -2.2455     4.0144     0.0515 H       
  33 H33            3.2965     3.8243    -0.0078 H       
  34 H34            3.1930     6.2583     0.0075 H       
  35 H35            1.0314     7.4261     0.0359 H       
  36 H36           -1.0619     6.1804     0.0479 H       
  37 H37           -0.4261    -2.5263    -0.8975 H       
  38 H38           -0.4091    -2.5358     0.8824 H       
  39 H39           -1.5951    -4.5872    -1.2368 H       
  40 H40           -1.3232    -4.8445     0.5037 H       
  41 H41           -3.1758    -6.2700    -0.3580 H       
  42 H42           -3.7540    -5.1058     0.8585 H       
  43 H43           -5.2237    -2.8454    -1.6204 H       
  44 H44           -4.9518    -3.1027     0.1202 H       
  45 H45           -3.3710    -1.4199    -0.7586 H       
  46 H46           -2.7929    -2.5841    -1.9752 H       
  47 H47           -5.3892    -6.4059    -1.5376 H       
  48 H48           -5.9134    -5.5104    -0.0914 H       
  49 H49           -6.1759    -5.8161    -3.7131 H       
  50 H50           -8.7742    -2.2761    -1.5858 H       
  51 H51           -9.1872    -2.7913    -3.9580 H       
  52 H52           -7.8715    -4.5921    -5.0573 H       
@<TRIPOS>BOND
   1    1    2 1
   2    1    6 ar
   3    1    5 ar
   4    2    3 1
   5    2    4 2
   6    3   14 1
   7    3   28 1
   8    3   29 1
   9    5    9 ar
  10    5   30 1
  11    6    7 ar
  12    6   31 1
  13    7    8 ar
  14    7   10 ar
  15    8    9 ar
  16    8   13 ar
  17    9   32 1
  18   10   11 ar
  19   10   33 1
  20   11   12 ar
  21   11   34 1
  22   12   13 ar
  23   12   35 1
  24   13   36 1
  25   14   15 1
  26   14   37 1
  27   14   38 1
  28   15   16 1
  29   15   20 1
  30   16   17 1
  31   16   39 1
  32   16   40 1
  33   17   18 1
  34   17   41 1
  35   17   42 1
  36   18   19 1
  37   18   21 1
  38   19   20 1
  39   19   43 1
  40   19   44 1
  41   20   45 1
  42   20   46 1
  43   21   22 1
  44   21   47 1
  45   21   48 1
  46   22   23 ar
  47   22   24 ar
  48   23   27 ar
  49   23   49 1
  50   24   25 ar
  51   25   26 ar
  52   25   50 1
  53   26   27 ar
  54   26   51 1
  55   27   52 1

#	End of record

