#	Name: ASD07330026
#	Creating user name:	WinNT
#	Creation time:	15. 06. 2019 21:11

#	Modifying user name:	WinNT
#	Modification time:	15. 06. 2019 21:11

#	Program:	/corina/corina34_cracker 3.40 0067  02.08.2006

@<TRIPOS>MOLECULE
ASD07330026
  72   76    0    0    0
SMALL
NO_CHARGES


@<TRIPOS>ATOM
   1 C1             1.9853     0.5247     4.9110 C.ar    
   2 C2             2.9315    -0.2312     5.5869 C.ar    
   3 N3             3.8083    -0.9762     4.9473 N.ar    
   4 C4             3.8277    -1.0390     3.6196 C.ar    
   5 C5             2.8911    -0.2938     2.8676 C.ar    
   6 C6             1.9543     0.5014     3.5277 C.ar    
   7 N7             4.7305    -1.8055     2.9599 N.2     
   8 C8             4.7535    -1.8697     1.6627 C.2     
   9 N9             3.8921    -1.1876     0.8635 N.am    
  10 C10            2.9426    -0.3873     1.4028 C.2     
  11 C11            3.9872    -1.3134    -0.5295 C.ar    
  12 C12            3.0599    -2.0801    -1.2226 C.ar    
  13 C13            3.1541    -2.2036    -2.5945 C.ar    
  14 C14            4.1751    -1.5618    -3.2806 C.ar    
  15 C15            5.1023    -0.7960    -2.5885 C.ar    
  16 C16            5.0054    -0.6667    -1.2174 C.ar    
  17 C17            5.7907    -2.7467     1.0098 C.3     
  18 C18            6.8706    -3.1070     2.0320 C.3     
  19 N19            5.1551    -3.9718     0.5185 N.am    
  20 C20            4.4135    -4.8335     1.4425 C.3     
  21 C21            2.9465    -4.4947     1.3773 C.ar    
  22 C22            2.0903    -5.2414     0.5906 C.ar    
  23 O23            5.9355    -3.6388    -1.5314 O.2     
  24 C24            5.2527    -4.3062    -0.7835 C.2     
  25 C25            2.4378    -3.4333     2.1104 C.ar    
  26 C26            1.0820    -3.1583     2.0196 C.ar    
  27 C27            0.2880    -3.9457     1.2071 C.ar    
  28 N28            0.8054    -4.9507     0.5281 N.ar    
  29 C29            6.0996    -6.5673    -2.9311 C.ar    
  30 C30            4.9680    -5.8023    -2.7165 C.ar    
  31 C31            4.5136    -5.5094    -1.3099 C.3     
  32 C32            6.5182    -6.8372    -4.2196 C.ar    
  33 C33            5.8022    -6.3400    -5.2988 C.ar    
  34 C34            4.6674    -5.5723    -5.0809 C.ar    
  35 C35            4.2529    -5.3052    -3.7904 C.ar    
  36 O36            2.1627     0.2305     0.7015 O.2     
  37 O37            4.2674    -1.6838    -4.6314 O.3     
  38 C38            5.2651    -0.8986    -5.2870 C.3     
  39 C39            5.2743    -1.2295    -6.7808 C.3     
  40 O40            6.2122    -6.6038    -6.5673 O.3     
  41 C41            5.3611    -6.1660    -7.6285 C.3     
  42 F42            5.2771    -4.7696    -7.6130 F       
  43 F43            5.8887    -6.5879    -8.8536 F       
  44 F44            4.0844    -6.7119    -7.4577 F       
  45 H45            1.2745     1.1239     5.4606 H       
  46 H46            2.9498    -0.2077     6.6665 H       
  47 H47            1.2279     1.0805     2.9768 H       
  48 H48            2.2654    -2.5800    -0.6886 H       
  49 H49            2.4332    -2.8002    -3.1336 H       
  50 H50            5.8970    -0.2969    -3.1231 H       
  51 H51            5.7271    -0.0705    -0.6788 H       
  52 H52            6.2444    -2.2128     0.1748 H       
  53 H53            6.4322    -3.7115     2.8259 H       
  54 H54            7.6624    -3.6720     1.5402 H       
  55 H55            7.2866    -2.1940     2.4581 H       
  56 H56            4.5583    -5.8767     1.1619 H       
  57 H57            4.7779    -4.6763     2.4577 H       
  58 H58            2.4779    -6.0724     0.0200 H       
  59 H59            3.0823    -2.8352     2.7375 H       
  60 H60            0.6516    -2.3395     2.5770 H       
  61 H61           -0.7691    -3.7381     1.1309 H       
  62 H62            6.6592    -6.9504    -2.0905 H       
  63 H63            4.7213    -6.3702    -0.6743 H       
  64 H64            3.4425    -5.3069    -1.3088 H       
  65 H65            7.4024    -7.4345    -4.3866 H       
  66 H66            4.1085    -5.1838    -5.9194 H       
  67 H67            3.3693    -4.7079    -3.6203 H       
  68 H68            5.0423     0.1596    -5.1507 H       
  69 H69            6.2425    -1.1221    -4.8593 H       
  70 H70            6.0734    -0.6735    -7.2712 H       
  71 H71            5.4400    -2.2984    -6.9151 H       
  72 H72            4.3162    -0.9522    -7.2203 H       
@<TRIPOS>BOND
   1    1    2 ar
   2    1    6 ar
   3    1   45 1
   4    2    3 ar
   5    2   46 1
   6    3    4 ar
   7    4    5 ar
   8    4    7 1
   9    5    6 ar
  10    5   10 1
  11    6   47 1
  12    7    8 2
  13    8    9 1
  14    8   17 1
  15    9   10 am
  16    9   11 1
  17   10   36 2
  18   11   12 ar
  19   11   16 ar
  20   12   13 ar
  21   12   48 1
  22   13   14 ar
  23   13   49 1
  24   14   15 ar
  25   14   37 1
  26   15   16 ar
  27   15   50 1
  28   16   51 1
  29   17   18 1
  30   17   19 1
  31   17   52 1
  32   18   53 1
  33   18   54 1
  34   18   55 1
  35   19   20 1
  36   19   24 am
  37   20   21 1
  38   20   56 1
  39   20   57 1
  40   21   22 ar
  41   21   25 ar
  42   22   28 ar
  43   22   58 1
  44   23   24 2
  45   24   31 1
  46   25   26 ar
  47   25   59 1
  48   26   27 ar
  49   26   60 1
  50   27   28 ar
  51   27   61 1
  52   29   30 ar
  53   29   32 ar
  54   29   62 1
  55   30   31 1
  56   30   35 ar
  57   31   63 1
  58   31   64 1
  59   32   33 ar
  60   32   65 1
  61   33   34 ar
  62   33   40 1
  63   34   35 ar
  64   34   66 1
  65   35   67 1
  66   37   38 1
  67   38   39 1
  68   38   68 1
  69   38   69 1
  70   39   70 1
  71   39   71 1
  72   39   72 1
  73   40   41 1
  74   41   42 1
  75   41   43 1
  76   41   44 1

#	End of record

