#	Name: ASD03731564
#	Creating user name:	WinNT
#	Creation time:	15. 06. 2019 20:45

#	Modifying user name:	WinNT
#	Modification time:	15. 06. 2019 20:45

#	Program:	/corina/corina34_cracker 3.40 0067  02.08.2006

@<TRIPOS>MOLECULE
ASD03731564
  35   36    0    0    0
SMALL
NO_CHARGES


@<TRIPOS>ATOM
   1 C1            -0.4051     1.1041    -1.9659 C.2     
   2 C2            -0.2829    -0.2748    -1.4535 C.ar    
   3 C3             0.8992    -0.9932    -1.6509 C.ar    
   4 C4             1.0093    -2.2794    -1.1715 C.ar    
   5 C5            -0.0539    -2.8633    -0.4924 C.ar    
   6 C6            -1.2316    -2.1518    -0.2940 C.ar    
   7 C7            -1.3471    -0.8630    -0.7650 C.ar    
   8 O8             0.5236     1.6162    -2.5604 O.2     
   9 N9            -1.5481     1.7935    -1.7794 N.am    
  10 S10           -1.6851     3.3405    -2.3542 S.o2    
  11 O11           -2.9875     3.7476    -1.9576 O.2     
  12 O12           -0.5286     4.0018    -1.8598 O.2     
  13 C13           -1.5950     3.1631    -4.1572 C.3     
  14 O14            0.0580    -4.1313    -0.0222 O.3     
  15 C15            1.2597    -4.7517    -0.1419 C.ar    
  16 C16            2.2076    -4.6201     0.8626 C.ar    
  17 C17            3.4400    -5.2557     0.7421 C.ar    
  18 C18            3.7154    -6.0303    -0.4034 C.ar    
  19 C19            2.7504    -6.1516    -1.4035 C.ar    
  20 C20            1.5321    -5.5206    -1.2678 C.ar    
  21 C21            4.9796    -6.6889    -0.5398 C.1     
  22 N22            5.9825    -7.2114    -0.6479 N.1     
  23 C23            4.4227    -5.1232     1.7752 C.1     
  24 N24            5.2023    -5.0182     2.5948 N.1     
  25 H25            1.7254    -0.5405    -2.1790 H       
  26 H26            1.9226    -2.8353    -1.3236 H       
  27 H27           -2.0554    -2.6089     0.2341 H       
  28 H28           -2.2606    -0.3092    -0.6063 H       
  29 H29           -2.2904     1.3835    -1.3085 H       
  30 H30           -2.4110     2.5275    -4.5010 H       
  31 H31           -1.6779     4.1449    -4.6235 H       
  32 H32           -0.6419     2.7104    -4.4306 H       
  33 H33            1.9896    -4.0248     1.7369 H       
  34 H34            2.9563    -6.7438    -2.2829 H       
  35 H35            0.7864    -5.6209    -2.0425 H       
@<TRIPOS>BOND
   1    1    2 1
   2    1    8 2
   3    1    9 am
   4    2    3 ar
   5    2    7 ar
   6    3    4 ar
   7    3   25 1
   8    4    5 ar
   9    4   26 1
  10    5    6 ar
  11    5   14 1
  12    6    7 ar
  13    6   27 1
  14    7   28 1
  15    9   10 am
  16    9   29 1
  17   10   11 2
  18   10   12 2
  19   10   13 1
  20   13   30 1
  21   13   31 1
  22   13   32 1
  23   14   15 1
  24   15   16 ar
  25   15   20 ar
  26   16   17 ar
  27   16   33 1
  28   17   18 ar
  29   17   23 1
  30   18   19 ar
  31   18   21 1
  32   19   20 ar
  33   19   34 1
  34   20   35 1
  35   21   22 3
  36   23   24 3

#	End of record

