#	Name: ASD03731556
#	Creating user name:	WinNT
#	Creation time:	15. 06. 2019 20:45

#	Modifying user name:	WinNT
#	Modification time:	15. 06. 2019 20:45

#	Program:	/corina/corina34_cracker 3.40 0067  02.08.2006

@<TRIPOS>MOLECULE
ASD03731556
  37   38    0    0    0
SMALL
NO_CHARGES


@<TRIPOS>ATOM
   1 C1            -0.4032     1.1058    -1.9579 C.2     
   2 C2            -0.2817    -0.2725    -1.4484 C.ar    
   3 C3             0.9023    -0.9929    -1.6472 C.ar    
   4 C4             1.0105    -2.2829    -1.1682 C.ar    
   5 C5            -0.0527    -2.8652    -0.4908 C.ar    
   6 C6            -1.2310    -2.1520    -0.2915 C.ar    
   7 C7            -1.3463    -0.8621    -0.7603 C.ar    
   8 O8             0.5258     1.6186    -2.5518 O.2     
   9 N9            -1.5458     1.7954    -1.7702 N.am    
  10 S10           -1.6823     3.3434    -2.3424 S.o2    
  11 O11           -2.9845     3.7504    -1.9450 O.2     
  12 O12           -0.5254     4.0033    -1.8470 O.2     
  13 C13           -1.5924     3.1689    -4.1457 C.3     
  14 F14            1.9364    -0.4268    -2.3069 F       
  15 O15            0.0574    -4.1342    -0.0222 O.3     
  16 C16            1.2596    -4.7565    -0.1420 C.ar    
  17 C17            1.5367    -5.5200    -1.2662 C.ar    
  18 C18            2.7636    -6.1531    -1.3861 C.ar    
  19 C19            3.7126    -6.0217    -0.3806 C.ar    
  20 C20            3.4336    -5.2605     0.7390 C.ar    
  21 C21            2.2127    -4.6237     0.8576 C.ar    
  22 O22            3.0377    -6.9024    -2.4865 O.3     
  23 C23            2.0150    -6.9938    -3.4804 C.3     
  24 F24            1.7166    -5.7145    -3.9615 F       
  25 F25            2.4609    -7.7967    -4.5358 F       
  26 F26            0.8664    -7.5598    -2.9169 F       
  27 Cl27           5.2499    -6.8144    -0.5297 Cl      
  28 Cl28          -2.5557    -2.8871     0.5563 Cl      
  29 H29            1.9231    -2.8400    -1.3207 H       
  30 H30           -2.2597    -0.3085    -0.6008 H       
  31 H31           -2.2883     1.3850    -1.2999 H       
  32 H32           -2.4088     2.5343    -4.4905 H       
  33 H33           -1.6750     4.1515    -4.6104 H       
  34 H34           -0.6395     2.7162    -4.4199 H       
  35 H35            0.7973    -5.6213    -2.0469 H       
  36 H36            4.1724    -5.1598     1.5204 H       
  37 H37            1.9986    -4.0258     1.7312 H       
@<TRIPOS>BOND
   1    1    2 1
   2    1    8 2
   3    1    9 am
   4    2    3 ar
   5    2    7 ar
   6    3    4 ar
   7    3   14 1
   8    4    5 ar
   9    4   29 1
  10    5    6 ar
  11    5   15 1
  12    6    7 ar
  13    6   28 1
  14    7   30 1
  15    9   10 am
  16    9   31 1
  17   10   11 2
  18   10   12 2
  19   10   13 1
  20   13   32 1
  21   13   33 1
  22   13   34 1
  23   15   16 1
  24   16   17 ar
  25   16   21 ar
  26   17   18 ar
  27   17   35 1
  28   18   19 ar
  29   18   22 1
  30   19   20 ar
  31   19   27 1
  32   20   21 ar
  33   20   36 1
  34   21   37 1
  35   22   23 1
  36   23   24 1
  37   23   25 1
  38   23   26 1

#	End of record

