#	Name: ASD07930809
#	Creating user name:	WinNT
#	Creation time:	15. 06. 2019 21:13

#	Modifying user name:	WinNT
#	Modification time:	15. 06. 2019 21:13

#	Program:	/corina/corina34_cracker 3.40 0067  02.08.2006

@<TRIPOS>MOLECULE
ASD07930809
  40   43    0    0    0
SMALL
NO_CHARGES


@<TRIPOS>ATOM
   1 S1            -0.0218     1.7568     0.0117 S.3     
   2 C2             0.0021    -0.0041     0.0020 C.2     
   3 N3             1.0039    -0.6777    -0.4129 N.2     
   4 C4             2.2686    -0.2447    -0.9571 C.3     
   5 C5             2.4022     1.2744    -1.1331 C.3     
   6 C6             1.7645     2.0590    -0.0037 C.3     
   7 O7             1.9952     0.3585    -3.2710 O.3     
   8 C8             2.3528    -0.7412    -2.4245 C.3     
   9 C9             1.6712     1.5094    -2.4705 C.3     
  10 N10           -1.1039    -0.6814     0.4608 N.pl3   
  11 C11            2.1831     2.7861    -3.1406 C.3     
  12 C12            3.4090    -0.8012    -0.1442 C.ar    
  13 C13            4.7174    -0.5190    -0.5041 C.ar    
  14 C14            5.7706    -1.0275     0.2390 C.ar    
  15 C15            5.5215    -1.8179     1.3417 C.ar    
  16 C16            4.2061    -2.1051     1.7083 C.ar    
  17 C17            3.1489    -1.5857     0.9596 C.ar    
  18 C18            3.9331    -2.9523     2.8893 C.2     
  19 N19            2.7438    -3.2930     3.3338 N.2     
  20 C20            2.8823    -4.0641     4.4187 C.2     
  21 C21            4.1988    -4.2154     4.6677 C.2     
  22 N22            4.8726    -3.5188     3.7003 N.pl3   
  23 F23            4.9668     0.2542    -1.5835 F       
  24 H24            3.4538     1.5459    -1.2250 H       
  25 H25            1.9515     3.1229    -0.1499 H       
  26 H26            2.1946     1.7422     0.9464 H       
  27 H27            3.3693    -1.0652    -2.6480 H       
  28 H28            1.6576    -1.5668    -2.5766 H       
  29 H29            0.5948     1.5692    -2.3096 H       
  30 H30           -1.8759    -0.1890     0.7809 H       
  31 H31           -1.1118    -1.6513     0.4642 H       
  32 H32            3.2520     2.6925    -3.3320 H       
  33 H33            1.6571     2.9376    -4.0833 H       
  34 H34            2.0046     3.6377    -2.4841 H       
  35 H35            6.7883    -0.8050    -0.0458 H       
  36 H36            6.3430    -2.2141     1.9201 H       
  37 H37            2.1289    -1.8013     1.2418 H       
  38 H38            2.0767    -4.4921     4.9967 H       
  39 H39            4.6387    -4.7819     5.4751 H       
  40 H40            5.8352    -3.4409     3.6102 H       
@<TRIPOS>BOND
   1    1    2 1
   2    1    6 1
   3    2    3 2
   4    2   10 1
   5    3    4 1
   6    4    8 1
   7    4   12 1
   8    4    5 1
   9    5    6 1
  10    5    9 1
  11    5   24 1
  12    6   25 1
  13    6   26 1
  14    7    8 1
  15    7    9 1
  16    8   27 1
  17    8   28 1
  18    9   11 1
  19    9   29 1
  20   10   30 1
  21   10   31 1
  22   11   32 1
  23   11   33 1
  24   11   34 1
  25   12   13 ar
  26   12   17 ar
  27   13   14 ar
  28   13   23 1
  29   14   15 ar
  30   14   35 1
  31   15   16 ar
  32   15   36 1
  33   16   17 ar
  34   16   18 1
  35   17   37 1
  36   18   19 2
  37   18   22 1
  38   19   20 1
  39   20   21 2
  40   20   38 1
  41   21   22 1
  42   21   39 1
  43   22   40 1

#	End of record

