#	Name: ASD00170173
#	Creating user name:	WinNT
#	Creation time:	15. 06. 2019 18:31

#	Modifying user name:	WinNT
#	Modification time:	15. 06. 2019 18:31

#	Program:	/corina/corina34_cracker 3.40 0067  02.08.2006

@<TRIPOS>MOLECULE
ASD00170173
  36   39    0    0    0
SMALL
NO_CHARGES


@<TRIPOS>ATOM
   1 C1            -1.1238     1.5313    -0.9374 C.2     
   2 C2            -1.3850     0.2551    -1.1986 C.2     
   3 C3            -1.3352    -0.5820    -0.0015 C.2     
   4 C4            -1.0314     0.1195     1.1340 C.2     
   5 S5            -0.7993     1.7667     0.7798 S.3     
   6 N6            -0.9231    -0.4349     2.3932 N.pl3   
   7 C7            -1.5846    -2.0232    -0.0155 C.2     
   8 C8            -2.9669    -2.5355     0.0988 C.ar    
   9 C9            -1.1880     2.3605    -2.2148 C.3     
  10 C10           -1.0907     1.3322    -3.3597 C.3     
  11 C11           -1.6587     0.0659    -2.6882 C.3     
  12 O12           -0.6537    -2.8013    -0.1213 O.2     
  13 C13           -4.0260    -1.6398     0.3295 C.ar    
  14 C14           -5.3035    -2.0857     0.4387 C.ar    
  15 C15           -5.5819    -3.4595     0.3205 C.ar    
  16 C16           -4.5224    -4.3731     0.0873 C.ar    
  17 C17           -3.2094    -3.8934    -0.0278 C.ar    
  18 C18           -6.8958    -3.9447     0.4304 C.ar    
  19 C19           -7.1344    -5.2798     0.3120 C.ar    
  20 C20           -6.0934    -6.1778     0.0832 C.ar    
  21 C21           -4.8080    -5.7455    -0.0294 C.ar    
  22 H22           -1.1415    -1.3698     2.5319 H       
  23 H23           -0.6286     0.1103     3.1395 H       
  24 H24           -2.1334     2.9003    -2.2693 H       
  25 H25           -0.3501     3.0562    -2.2577 H       
  26 H26           -1.7048     1.6333    -4.2084 H       
  27 H27           -0.0545     1.1822    -3.6630 H       
  28 H28           -1.1458    -0.8219    -3.0581 H       
  29 H29           -2.7306    -0.0112    -2.8699 H       
  30 H30           -3.8204    -0.5835     0.4213 H       
  31 H31           -6.1063    -1.3855     0.6166 H       
  32 H32           -2.3932    -4.5780    -0.2054 H       
  33 H33           -7.7131    -3.2615     0.6084 H       
  34 H34           -8.1458    -5.6488     0.3971 H       
  35 H35           -6.3101    -7.2320    -0.0064 H       
  36 H36           -4.0111    -6.4525    -0.2071 H       
@<TRIPOS>BOND
   1    1    2 2
   2    1    9 1
   3    1    5 1
   4    2    3 1
   5    2   11 1
   6    3    4 2
   7    3    7 1
   8    4    5 1
   9    4    6 1
  10    6   22 1
  11    6   23 1
  12    7    8 1
  13    7   12 2
  14    8   13 ar
  15    8   17 ar
  16    9   10 1
  17    9   24 1
  18    9   25 1
  19   10   11 1
  20   10   26 1
  21   10   27 1
  22   11   28 1
  23   11   29 1
  24   13   14 ar
  25   13   30 1
  26   14   15 ar
  27   14   31 1
  28   15   16 ar
  29   15   18 ar
  30   16   17 ar
  31   16   21 ar
  32   17   32 1
  33   18   19 ar
  34   18   33 1
  35   19   20 ar
  36   19   34 1
  37   20   21 ar
  38   20   35 1
  39   21   36 1

#	End of record

