#	Name: ASD01901179
#	Creating user name:	WinNT
#	Creation time:	15. 06. 2019 19:53

#	Modifying user name:	WinNT
#	Modification time:	15. 06. 2019 19:53

#	Program:	/corina/corina34_cracker 3.40 0067  02.08.2006

@<TRIPOS>MOLECULE
ASD01901179
  51   54    0    0    0
SMALL
NO_CHARGES


@<TRIPOS>ATOM
   1 C1             1.4924     1.4399     1.4223 C.ar    
   2 C2             1.5816     0.0642     1.4645 C.ar    
   3 C3             1.7436    -0.6583     0.2955 C.ar    
   4 C4             1.8173    -0.0076    -0.9236 C.ar    
   5 C5             1.7301     1.3676    -0.9814 C.ar    
   6 C6             1.5660     2.1039     0.1949 C.ar    
   7 C7             1.4737     3.5320     0.1429 C.1     
   8 C8             1.3981     4.7028     0.1002 C.1     
   9 C9             1.3058     6.1309     0.0482 C.ar    
  10 C10            1.3788     6.8047    -1.1799 C.ar    
  11 C11            1.2847     8.1841    -1.1778 C.ar    
  12 C12            1.1219     8.8530     0.0331 C.ar    
  13 N13            1.0571     8.1871     1.1753 N.ar    
  14 C14            1.1360     6.8734     1.2189 C.ar    
  15 N15            1.0261    10.2470     0.0424 N.am    
  16 C16            2.1437    10.9864     0.1365 C.2     
  17 N17            2.1321    12.3104    -0.0880 N.am    
  18 C18            0.9220    12.9820    -0.5657 C.3     
  19 C19           -0.3091    12.3276     0.0655 C.3     
  20 C20           -0.1839    10.8287    -0.0488 C.2     
  21 O21            3.1903    10.4442     0.4324 O.2     
  22 F22            1.3503     8.8752    -2.3368 F       
  23 O23           -1.1727    10.1482    -0.2188 O.2     
  24 C24            0.9733    14.4591    -0.1702 C.3     
  25 C25            0.8383    12.8667    -2.0659 C.ar    
  26 C26            3.3472    13.0937     0.1488 C.3     
  27 C27            1.8654    12.2682    -2.7715 C.ar    
  28 C28            1.7888    12.1624    -4.1476 C.ar    
  29 C29            0.6848    12.6547    -4.8182 C.ar    
  30 C30           -0.3428    13.2524    -4.1126 C.ar    
  31 C31           -0.2680    13.3543    -2.7360 C.ar    
  32 H32            1.3615     2.0021     2.3350 H       
  33 H33            1.5252    -0.4504     2.4124 H       
  34 H34            1.8131    -1.7353     0.3347 H       
  35 H35            1.9437    -0.5780    -1.8319 H       
  36 H36            1.7885     1.8742    -1.9335 H       
  37 H37            1.5057     6.2598    -2.1036 H       
  38 H38            1.0736     6.3653     2.1699 H       
  39 H39           -0.3747    12.6121     1.1157 H       
  40 H40           -1.2060    12.6574    -0.4588 H       
  41 H41            1.0333    14.5429     0.9149 H       
  42 H42            1.8500    14.9254    -0.6197 H       
  43 H43            0.0730    14.9615    -0.5241 H       
  44 H44            4.1417    12.4349     0.4991 H       
  45 H45            3.6564    13.5741    -0.7795 H       
  46 H46            3.1475    13.8550     0.9029 H       
  47 H47            2.7280    11.8835    -2.2475 H       
  48 H48            2.5915    11.6955    -4.6989 H       
  49 H49            0.6252    12.5727    -5.8934 H       
  50 H50           -1.2051    13.6373    -4.6366 H       
  51 H51           -1.0725    13.8179    -2.1844 H       
@<TRIPOS>BOND
   1    1    2 ar
   2    1    6 ar
   3    1   32 1
   4    2    3 ar
   5    2   33 1
   6    3    4 ar
   7    3   34 1
   8    4    5 ar
   9    4   35 1
  10    5    6 ar
  11    5   36 1
  12    6    7 1
  13    7    8 3
  14    8    9 1
  15    9   10 ar
  16    9   14 ar
  17   10   11 ar
  18   10   37 1
  19   11   12 ar
  20   11   22 1
  21   12   13 ar
  22   12   15 1
  23   13   14 ar
  24   14   38 1
  25   15   16 am
  26   15   20 am
  27   16   17 am
  28   16   21 2
  29   17   26 1
  30   17   18 1
  31   18   19 1
  32   18   24 1
  33   18   25 1
  34   19   20 1
  35   19   39 1
  36   19   40 1
  37   20   23 2
  38   24   41 1
  39   24   42 1
  40   24   43 1
  41   25   27 ar
  42   25   31 ar
  43   26   44 1
  44   26   45 1
  45   26   46 1
  46   27   28 ar
  47   27   47 1
  48   28   29 ar
  49   28   48 1
  50   29   30 ar
  51   29   49 1
  52   30   31 ar
  53   30   50 1
  54   31   51 1

#	End of record

