#	Name: ASD01940250
#	Creating user name:	WinNT
#	Creation time:	15. 06. 2019 20:12

#	Modifying user name:	WinNT
#	Modification time:	15. 06. 2019 20:12

#	Program:	/corina/corina34_cracker 3.40 0067  02.08.2006

@<TRIPOS>MOLECULE
ASD01940250
  35   36    0    0    0
SMALL
NO_CHARGES


@<TRIPOS>ATOM
   1 F1             1.9014     1.6027     2.2852 F       
   2 C2             1.0625     2.1531     1.3804 C.ar    
   3 C3             1.3873     2.1346     0.0305 C.ar    
   4 C4             0.5187     2.7037    -0.8993 C.ar    
   5 C5            -0.6655     3.2857    -0.4722 C.ar    
   6 C6            -0.9838     3.3012     0.8733 C.ar    
   7 C7            -0.1254     2.7315     1.7982 C.ar    
   8 N8             2.5857     1.5455    -0.3960 N.pl3   
   9 N9             0.8415     2.6883    -2.2627 N.am    
  10 C10            2.6326     0.1760    -0.6689 C.ar    
  11 C11            1.4775    -0.5904    -0.5853 C.ar    
  12 C12            1.5273    -1.9442    -0.8557 C.ar    
  13 C13            2.7253    -2.5371    -1.2090 C.ar    
  14 C14            3.8784    -1.7776    -1.2930 C.ar    
  15 C15            3.8349    -0.4219    -1.0305 C.ar    
  16 Cl16           5.2823     0.5308    -1.1362 Cl      
  17 F17           -0.4439     2.7444     3.1110 F       
  18 S18            0.4246     3.9685    -3.2269 S.o2    
  19 O19            0.9903     3.6534    -4.4918 O.2     
  20 O20           -0.9818     4.0876    -3.0625 O.2     
  21 C21            1.2747     5.3892    -2.4855 C.3     
  22 F22            0.9910     6.5412    -3.2269 F       
  23 C23            2.7752    -4.0143    -1.5026 C.3     
  24 F24            2.5366    -4.2273    -2.8646 F       
  25 F25            4.0379    -4.5142    -1.1666 F       
  26 F26            1.7973    -4.6728    -0.7494 F       
  27 H27           -1.3396     3.7274    -1.1912 H       
  28 H28           -1.9066     3.7550     1.2032 H       
  29 H29            3.3824     2.0887    -0.5017 H       
  30 H30            1.3092     1.9277    -2.6418 H       
  31 H31            0.5412    -0.1285    -0.3088 H       
  32 H32            0.6291    -2.5405    -0.7908 H       
  33 H33            4.8127    -2.2441    -1.5686 H       
  34 H34            0.9311     5.5234    -1.4598 H       
  35 H35            2.3500     5.2111    -2.4881 H       
@<TRIPOS>BOND
   1    1    2 1
   2    2    3 ar
   3    2    7 ar
   4    3    4 ar
   5    3    8 1
   6    4    5 ar
   7    4    9 1
   8    5    6 ar
   9    5   27 1
  10    6    7 ar
  11    6   28 1
  12    7   17 1
  13    8   10 1
  14    8   29 1
  15    9   18 am
  16    9   30 1
  17   10   11 ar
  18   10   15 ar
  19   11   12 ar
  20   11   31 1
  21   12   13 ar
  22   12   32 1
  23   13   14 ar
  24   13   23 1
  25   14   15 ar
  26   14   33 1
  27   15   16 1
  28   18   19 2
  29   18   20 2
  30   18   21 1
  31   21   22 1
  32   21   34 1
  33   21   35 1
  34   23   24 1
  35   23   25 1
  36   23   26 1

#	End of record

