#	Name: ASD00841918
#	Creating user name:	WinNT
#	Creation time:	15. 06. 2019 18:43

#	Modifying user name:	WinNT
#	Modification time:	15. 06. 2019 18:43

#	Program:	/corina/corina34_cracker 3.40 0067  02.08.2006

@<TRIPOS>MOLECULE
ASD00841918
  94   99    0    0    0
SMALL
NO_CHARGES


@<TRIPOS>ATOM
   1 C1             0.9806     1.5570    -0.3570 C.ar    
   2 C2             1.2951     0.2306    -0.6138 C.ar    
   3 C3             1.2389    -0.7040     0.4102 C.ar    
   4 C4             0.8701    -0.3118     1.6822 C.ar    
   5 C5             0.5567     1.0110     1.9355 C.ar    
   6 C6             0.6123     1.9443     0.9171 C.ar    
   7 C7             1.5794    -2.1460     0.1346 C.3     
   8 C8             1.3247    -2.9950     1.3619 C.2     
   9 C9             0.7718    -2.6680    -1.0554 C.3     
  10 C10           -0.6974    -2.4510    -0.7994 C.2     
  11 N11           -1.6103    -2.9231    -1.6713 N.am    
  12 O12           -1.0582    -1.8516     0.1913 O.2     
  13 C13           -3.0379    -2.6230    -1.4962 C.3     
  14 C14           -3.8219    -3.9391    -1.4963 C.3     
  15 C15           -3.4959    -4.7224    -2.7700 C.3     
  16 C16           -2.0014    -5.0505    -2.8006 C.3     
  17 C17           -1.1961    -3.7424    -2.8185 C.3     
  18 N18           -4.2714    -5.9699    -2.7893 N.3     
  19 C19           -4.0744    -6.6929    -4.0535 C.3     
  20 C20           -4.8335    -8.0209    -4.0022 C.3     
  21 N21           -6.2599    -7.7581    -3.7658 N.3     
  22 C22           -6.4568    -7.0351    -2.5016 C.3     
  23 C23           -5.6978    -5.7071    -2.5530 C.3     
  24 C24           -7.0353    -9.0056    -3.7852 C.3     
  25 O25            0.2583    -3.1582     1.9162 O.2     
  26 N26            2.5020    -3.5333     1.7219 N.am    
  27 C27            3.0614    -2.3010    -0.1187 C.ar    
  28 C28            3.5412    -3.1463     0.8742 C.ar    
  29 C29            3.9054    -1.7873    -1.0773 C.ar    
  30 C30            5.2514    -2.1125    -1.0588 C.ar    
  31 C31            5.7426    -2.9546    -0.0739 C.ar    
  32 C32            4.8958    -3.4704     0.8885 C.ar    
  33 Cl33           6.3197    -1.4678    -2.2658 Cl      
  34 F34            7.0555    -3.2727    -0.0546 F       
  35 C35            2.4524    -6.1877     2.4473 C.ar    
  36 C36            3.5260    -6.9217     1.9776 C.ar    
  37 C37            1.1879    -6.7464     2.4720 C.ar    
  38 C38            0.9941    -8.0398     2.0272 C.ar    
  39 C39            2.0696    -8.7783     1.5555 C.ar    
  40 C40            3.3374    -8.2153     1.5313 C.ar    
  41 O41            1.8817   -10.0511     1.1178 O.3     
  42 H42            4.5127    -6.4831     1.9593 H       
  43 C43            3.0343   -10.7518     0.6460 C.3     
  44 C44           -8.4577    -8.7296    -3.2934 C.3     
  45 C45           -9.2653   -10.0289    -3.3136 C.3     
  46 O46            1.6571    -0.1529    -1.8663 O.3     
  47 C47            2.1217     0.2538    -4.2028 C.3     
  48 C48            1.5846     0.8371    -2.8942 C.3     
  49 S49            2.6975    -4.5402     3.0220 S.o2    
  50 O50            4.0640    -4.4463     3.4004 O.2     
  51 O51            1.6241    -4.2614     3.9105 O.2     
  52 H52            1.0279     2.2872    -1.1513 H       
  53 H53            0.8263    -1.0389     2.4796 H       
  54 H54            0.2679     1.3156     2.9306 H       
  55 H55            0.3670     2.9768     1.1175 H       
  56 H56            1.0664    -2.1321    -1.9576 H       
  57 H57            0.9644    -3.7329    -1.1861 H       
  58 H58           -3.1893    -2.1076    -0.5478 H       
  59 H59           -3.3820    -1.9926    -2.3161 H       
  60 H60           -3.5415    -4.5297    -0.6242 H       
  61 H61           -4.8904    -3.7260    -1.4637 H       
  62 H62           -3.7537    -4.1213    -3.6419 H       
  63 H63           -1.7381    -5.6307    -1.9162 H       
  64 H64           -1.7741    -5.6285    -3.6964 H       
  65 H65           -1.3913    -3.2058    -3.7470 H       
  66 H66           -0.1324    -3.9670    -2.7405 H       
  67 H67           -4.4516    -6.0901    -4.8797 H       
  68 H68           -3.0118    -6.8868    -4.1998 H       
  69 H69           -4.7126    -8.5457    -4.9498 H       
  70 H70           -4.4379    -8.6348    -3.1931 H       
  71 H71           -7.5194    -6.8412    -2.3553 H       
  72 H72           -6.0797    -7.6378    -1.6755 H       
  73 H73           -5.8187    -5.1822    -1.6053 H       
  74 H74           -6.0934    -5.0931    -3.3621 H       
  75 H75           -7.0718    -9.3950    -4.8026 H       
  76 H76           -6.5610    -9.7384    -3.1324 H       
  77 H77            3.5182    -1.1317    -1.8432 H       
  78 H78            5.2851    -4.1258     1.6536 H       
  79 H79            0.3510    -6.1712     2.8397 H       
  80 H80            0.0063    -8.4759     2.0471 H       
  81 H81            4.1763    -8.7883     1.1649 H       
  82 H82            3.4671   -10.2131    -0.1970 H       
  83 H83            3.7694   -10.8233     1.4475 H       
  84 H84            2.7454   -11.7534     0.3275 H       
  85 H85           -8.4212    -8.3402    -2.2760 H       
  86 H86           -8.9320    -7.9968    -3.9462 H       
  87 H87           -9.3017   -10.4184    -4.3310 H       
  88 H88           -8.7910   -10.7618    -2.6608 H       
  89 H89          -10.2786    -9.8324    -2.9633 H       
  90 H90            2.1480     1.0333    -4.9642 H       
  91 H91            3.1285    -0.1318    -4.0425 H       
  92 H92            1.4710    -0.5556    -4.5338 H       
  93 H93            0.5475     1.1431    -3.0315 H       
  94 H94            2.1838     1.7018    -2.6089 H       
@<TRIPOS>BOND
   1    1    2 ar
   2    1    6 ar
   3    1   52 1
   4    2    3 ar
   5    2   46 1
   6    3    4 ar
   7    3    7 1
   8    4    5 ar
   9    4   53 1
  10    5    6 ar
  11    5   54 1
  12    6   55 1
  13    7    8 1
  14    7    9 1
  15    7   27 1
  16    8   25 2
  17    8   26 am
  18    9   10 1
  19    9   56 1
  20    9   57 1
  21   10   11 am
  22   10   12 2
  23   11   13 1
  24   11   17 1
  25   13   14 1
  26   13   58 1
  27   13   59 1
  28   14   15 1
  29   14   60 1
  30   14   61 1
  31   15   16 1
  32   15   18 1
  33   15   62 1
  34   16   17 1
  35   16   63 1
  36   16   64 1
  37   17   65 1
  38   17   66 1
  39   18   19 1
  40   18   23 1
  41   19   20 1
  42   19   67 1
  43   19   68 1
  44   20   21 1
  45   20   69 1
  46   20   70 1
  47   21   22 1
  48   21   24 1
  49   22   23 1
  50   22   71 1
  51   22   72 1
  52   23   73 1
  53   23   74 1
  54   24   44 1
  55   24   75 1
  56   24   76 1
  57   26   49 am
  58   26   28 1
  59   27   28 ar
  60   27   29 ar
  61   28   32 ar
  62   29   30 ar
  63   29   77 1
  64   30   31 ar
  65   30   33 1
  66   31   32 ar
  67   31   34 1
  68   32   78 1
  69   35   36 ar
  70   35   37 ar
  71   35   49 1
  72   36   42 1
  73   36   40 ar
  74   37   38 ar
  75   37   79 1
  76   38   39 ar
  77   38   80 1
  78   39   40 ar
  79   39   41 1
  80   40   81 1
  81   41   43 1
  82   43   82 1
  83   43   83 1
  84   43   84 1
  85   44   45 1
  86   44   85 1
  87   44   86 1
  88   45   87 1
  89   45   88 1
  90   45   89 1
  91   46   48 1
  92   47   48 1
  93   47   90 1
  94   47   91 1
  95   47   92 1
  96   48   93 1
  97   48   94 1
  98   49   50 2
  99   49   51 2

#	End of record

