#	Name: ASD01811632
#	Creating user name:	WinNT
#	Creation time:	15. 06. 2019 19:27

#	Modifying user name:	WinNT
#	Modification time:	15. 06. 2019 19:27

#	Program:	/corina/corina34_cracker 3.40 0067  02.08.2006

@<TRIPOS>MOLECULE
ASD01811632
  65   70    0    0    0
SMALL
NO_CHARGES


@<TRIPOS>ATOM
   1 C1            -0.4094     1.3093    -1.4318 C.ar    
   2 C2            -0.3687    -0.0721    -1.3914 C.ar    
   3 C3             0.8180    -0.7267    -1.1326 C.ar    
   4 C4             1.9850    -0.0001    -0.9107 C.ar    
   5 C5             1.9323     1.3904    -0.9547 C.ar    
   6 C6             0.7459     2.0392    -1.2125 C.ar    
   7 N7             3.2860    -0.4255    -0.6337 N.am    
   8 C8             4.1374     0.6075    -0.4845 C.2     
   9 C9             3.3318     1.8631    -0.6804 C.3     
  10 C10            3.8798     2.7084    -1.8330 C.3     
  11 N11            4.1985     4.0411    -1.2695 N.3     
  12 C12            4.4477     3.8207     0.1790 C.3     
  13 C13            3.3857     2.7585     0.5675 C.3     
  14 C14            5.3786     4.6211    -1.9244 C.3     
  15 C15            5.2905     4.4153    -3.4507 C.3     
  16 C16            5.8838     5.7171    -4.0444 C.3     
  17 C17            5.3546     6.8057    -3.0780 C.3     
  18 C18            5.4194     6.1409    -1.6874 C.3     
  19 C19            4.2180     6.5722    -0.8438 C.3     
  20 C20            3.6791    -1.8320    -0.5183 C.3     
  21 C21            4.0994    -2.3487    -1.8701 C.ar    
  22 O22            5.3231     0.5390    -0.2389 O.2     
  23 C23            5.3678    -2.0687    -2.3526 C.ar    
  24 C24            5.7572    -2.5412    -3.5919 C.ar    
  25 C25            4.8719    -3.2993    -4.3545 C.ar    
  26 C26            3.5983    -3.5771    -3.8637 C.ar    
  27 C27            3.2203    -3.1053    -2.6225 C.ar    
  28 F28            6.2246    -1.3328    -1.6112 F       
  29 C29            5.2842    -3.8091    -5.6866 C.2     
  30 C30            6.5333    -3.6068    -6.3051 C.2     
  31 N31            6.5143    -4.2085    -7.4648 N.2     
  32 N32            5.2629    -4.8139    -7.6314 N.pl3   
  33 C33            4.5241    -4.5639    -6.5316 C.2     
  34 C34            4.8324    -5.5898    -8.7971 C.3     
  35 H35           -1.3397     1.8175    -1.6385 H       
  36 H36           -1.2703    -0.6415    -1.5627 H       
  37 H37            0.8418    -1.8060    -1.1018 H       
  38 H38            0.7167     3.1183    -1.2443 H       
  39 H39            4.7819     2.2487    -2.2367 H       
  40 H40            3.1274     2.8046    -2.6157 H       
  41 H41            5.4542     3.4351     0.3414 H       
  42 H42            4.2928     4.7422     0.7402 H       
  43 H43            2.4185     3.2273     0.7488 H       
  44 H44            3.7096     2.1886     1.4384 H       
  45 H45            6.2859     4.1576    -1.5369 H       
  46 H46            5.8837     3.5527    -3.7542 H       
  47 H47            4.2524     4.2935    -3.7600 H       
  48 H48            6.9733     5.6859    -4.0318 H       
  49 H49            5.5128     5.8847    -5.0555 H       
  50 H50            5.9945     7.6875    -3.1094 H       
  51 H51            4.3269     7.0699    -3.3270 H       
  52 H52            6.3468     6.4158    -1.1850 H       
  53 H53            3.3101     6.1264    -1.2500 H       
  54 H54            4.3578     6.2390     0.1845 H       
  55 H55            4.1303     7.6585    -0.8651 H       
  56 H56            4.5118    -1.9205     0.1795 H       
  57 H57            2.8349    -2.4164    -0.1524 H       
  58 H58            6.7457    -2.3228    -3.9682 H       
  59 H59            2.9085    -4.1642    -4.4518 H       
  60 H60            2.2329    -3.3211    -2.2418 H       
  61 H61            7.3623    -3.0506    -5.8929 H       
  62 H62            3.5117    -4.8955    -6.3544 H       
  63 H63            5.0817    -6.6401    -8.6467 H       
  64 H64            3.7548    -5.4867    -8.9244 H       
  65 H65            5.3404    -5.2197    -9.6877 H       
@<TRIPOS>BOND
   1    1    2 ar
   2    1    6 ar
   3    1   35 1
   4    2    3 ar
   5    2   36 1
   6    3    4 ar
   7    3   37 1
   8    4    5 ar
   9    4    7 1
  10    5    6 ar
  11    5    9 1
  12    6   38 1
  13    7    8 am
  14    7   20 1
  15    8    9 1
  16    8   22 2
  17    9   10 1
  18    9   13 1
  19   10   11 1
  20   10   39 1
  21   10   40 1
  22   11   12 1
  23   11   14 1
  24   12   13 1
  25   12   41 1
  26   12   42 1
  27   13   43 1
  28   13   44 1
  29   14   15 1
  30   14   18 1
  31   14   45 1
  32   15   16 1
  33   15   46 1
  34   15   47 1
  35   16   17 1
  36   16   48 1
  37   16   49 1
  38   17   18 1
  39   17   50 1
  40   17   51 1
  41   18   19 1
  42   18   52 1
  43   19   53 1
  44   19   54 1
  45   19   55 1
  46   20   21 1
  47   20   56 1
  48   20   57 1
  49   21   23 ar
  50   21   27 ar
  51   23   24 ar
  52   23   28 1
  53   24   25 ar
  54   24   58 1
  55   25   26 ar
  56   25   29 1
  57   26   27 ar
  58   26   59 1
  59   27   60 1
  60   29   30 1
  61   29   33 2
  62   30   31 2
  63   30   61 1
  64   31   32 1
  65   32   33 1
  66   32   34 1
  67   33   62 1
  68   34   63 1
  69   34   64 1
  70   34   65 1

#	End of record

