#	Name: ASD03430765
#	Creating user name:	WinNT
#	Creation time:	15. 06. 2019 20:41

#	Modifying user name:	WinNT
#	Modification time:	15. 06. 2019 20:41

#	Program:	/corina/corina34_cracker 3.40 0067  02.08.2006

@<TRIPOS>MOLECULE
ASD03430765
  37   41    0    0    0
SMALL
NO_CHARGES


@<TRIPOS>ATOM
   1 C1            -0.0166     1.3733     0.0096 C.ar    
   2 C2             0.0021    -0.0041     0.0020 C.ar    
   3 C3             1.2042    -0.6798    -0.0041 C.ar    
   4 C4             2.4064     0.0230     0.0067 C.ar    
   5 C5             2.3788     1.4124     0.0040 C.ar    
   6 C6             1.1696     2.0974     0.0022 C.ar    
   7 O7             3.4728    -0.8261     0.0329 O.3     
   8 C8             1.5604    -2.1411    -0.0338 C.3     
   9 C9             3.0511    -2.1331    -0.4011 C.3     
  10 C10            0.4387    -3.8682     1.0052 C.ar    
  11 C11            1.3124    -2.8193     1.2806 C.ar    
  12 C12            0.7458    -2.9070    -1.0366 C.2     
  13 N13            0.1274    -3.8926    -0.3563 N.am    
  14 O14            0.6610    -2.6825    -2.2256 O.2     
  15 C15            1.7576    -2.5972     2.5666 C.ar    
  16 C16            1.3371    -3.4221     3.5982 C.ar    
  17 C17            0.4717    -4.4669     3.3336 C.ar    
  18 C18            0.0234    -4.6920     2.0482 C.ar    
  19 C19           -1.1516     2.3783     0.0361 C.3     
  20 C20           -0.4171     3.6805     0.4338 C.3     
  21 O21            0.9268     3.4376    -0.0157 O.3     
  22 C22           -0.9205    -5.8338     1.7720 C.3     
  23 F23            2.6035    -1.5751     2.8213 F       
  24 H24           -0.9264    -0.5557     0.0012 H       
  25 H25            3.3065     1.9655     0.0037 H       
  26 H26            3.1853    -2.2457    -1.4769 H       
  27 H27            3.5873    -2.9124     0.1405 H       
  28 H28           -0.4652    -4.5430    -0.7646 H       
  29 H29            1.6851    -3.2492     4.6058 H       
  30 H30            0.1450    -5.1106     4.1369 H       
  31 H31           -1.6096     2.4746    -0.9484 H       
  32 H32           -1.8953     2.1063     0.7851 H       
  33 H33           -0.8473     4.5393    -0.0813 H       
  34 H34           -0.4430     3.8239     1.5140 H       
  35 H35           -1.9490    -5.4882     1.8760 H       
  36 H36           -0.7610    -6.1999     0.7578 H       
  37 H37           -0.7342    -6.6392     2.4825 H       
@<TRIPOS>BOND
   1    1    2 ar
   2    1    6 ar
   3    1   19 1
   4    2    3 ar
   5    2   24 1
   6    3    4 ar
   7    3    8 1
   8    4    5 ar
   9    4    7 1
  10    5    6 ar
  11    5   25 1
  12    6   21 1
  13    7    9 1
  14    8    9 1
  15    8   11 1
  16    8   12 1
  17    9   26 1
  18    9   27 1
  19   10   11 ar
  20   10   13 1
  21   10   18 ar
  22   11   15 ar
  23   12   13 am
  24   12   14 2
  25   13   28 1
  26   15   16 ar
  27   15   23 1
  28   16   17 ar
  29   16   29 1
  30   17   18 ar
  31   17   30 1
  32   18   22 1
  33   19   20 1
  34   19   31 1
  35   19   32 1
  36   20   21 1
  37   20   33 1
  38   20   34 1
  39   22   35 1
  40   22   36 1
  41   22   37 1

#	End of record

