#	Name: ASD03092579
#	Creating user name:	WinNT
#	Creation time:	15. 06. 2019 20:32

#	Modifying user name:	WinNT
#	Modification time:	15. 06. 2019 20:32

#	Program:	/corina/corina34_cracker 3.40 0067  02.08.2006

@<TRIPOS>MOLECULE
ASD03092579
  34   36    0    0    0
SMALL
NO_CHARGES


@<TRIPOS>ATOM
   1 O1            -0.0162     1.3450     0.0094 O.3     
   2 C2             0.0021    -0.0041     0.0020 C.2     
   3 N3             1.2609    -0.3770    -0.0120 N.2     
   4 N4             2.0114     0.6683    -0.0136 N.2     
   5 C5             1.2631     1.7417    -0.0006 C.2     
   6 C6            -1.1734    -0.8944     0.0092 C.2     
   7 O7            -2.2938    -0.4220     0.0231 O.2     
   8 N8            -1.0060    -2.2317     0.0003 N.am    
   9 C9            -2.1738    -3.1162     0.0075 C.3     
  10 N10           -0.4664    -8.4790     0.2346 N.pl3   
  11 C11           -0.4012    -8.6469     1.5910 C.2     
  12 C12           -0.7568    -7.5102     2.2104 C.2     
  13 C13           -1.0756    -6.5347     1.1651 C.ar    
  14 C14           -1.4989    -5.2041     1.1758 C.ar    
  15 C15           -1.7166    -4.5521    -0.0049 C.ar    
  16 C16           -1.5203    -5.2019    -1.2160 C.ar    
  17 C17           -1.1035    -6.5143    -1.2496 C.ar    
  18 C18           -0.8757    -7.1977    -0.0593 C.ar    
  19 C19            0.0084    -9.9195     2.2866 C.3     
  20 C20            1.7525     3.1670     0.0019 C.3     
  21 H21           -0.1123    -2.6085    -0.0108 H       
  22 H22           -2.7646    -2.9307     0.9045 H       
  23 H23           -2.7827    -2.9212    -0.8754 H       
  24 H24           -0.2520    -9.1600    -0.4221 H       
  25 H25           -0.7996    -7.3461     3.2770 H       
  26 H26           -1.6545    -4.6925     2.1141 H       
  27 H27           -1.6966    -4.6731    -2.1410 H       
  28 H28           -0.9539    -7.0112    -2.1968 H       
  29 H29            1.0866    -9.9155     2.4461 H       
  30 H30           -0.5009    -9.9882     3.2478 H       
  31 H31           -0.2643   -10.7751     1.6689 H       
  32 H32            1.8801     3.5055     1.0301 H       
  33 H33            2.7073     3.2243    -0.5207 H       
  34 H34            1.0239     3.8022    -0.5019 H       
@<TRIPOS>BOND
   1    1    2 1
   2    1    5 1
   3    2    3 2
   4    2    6 1
   5    3    4 1
   6    4    5 2
   7    5   20 1
   8    6    7 2
   9    6    8 am
  10    8    9 1
  11    8   21 1
  12    9   15 1
  13    9   22 1
  14    9   23 1
  15   10   11 1
  16   10   18 1
  17   10   24 1
  18   11   12 2
  19   11   19 1
  20   12   13 1
  21   12   25 1
  22   13   14 ar
  23   13   18 ar
  24   14   15 ar
  25   14   26 1
  26   15   16 ar
  27   16   17 ar
  28   16   27 1
  29   17   18 ar
  30   17   28 1
  31   19   29 1
  32   19   30 1
  33   19   31 1
  34   20   32 1
  35   20   33 1
  36   20   34 1

#	End of record

