#	Name: ASD01910902
#	Creating user name:	WinNT
#	Creation time:	15. 06. 2019 19:56

#	Modifying user name:	WinNT
#	Modification time:	15. 06. 2019 19:56

#	Program:	/corina/corina34_cracker 3.40 0067  02.08.2006

@<TRIPOS>MOLECULE
ASD01910902
  52   55    0    0    0
SMALL
NO_CHARGES


@<TRIPOS>ATOM
   1 S1             0.5774     1.4941     0.0662 S.o2    
   2 N2             0.4161    -0.1540     0.0691 N.am    
   3 C3             0.2556    -0.8876     1.3324 C.3     
   4 C4            -1.0237    -1.7296     1.2510 C.3     
   5 N5            -1.0095    -2.4848    -0.0097 N.am    
   6 C6            -0.8489    -1.7512    -1.2730 C.3     
   7 C7             0.4248    -0.9086    -1.1920 C.3     
   8 C8            -1.1408    -3.8261    -0.0074 C.2     
   9 C9            -1.2550    -4.5601    -1.2860 C.ar    
  10 C10           -0.5595    -5.7571    -1.4702 C.ar    
  11 C11           -0.6645    -6.4445    -2.6636 C.ar    
  12 C12           -1.4565    -5.9549    -3.6823 C.ar    
  13 C13           -2.1583    -4.7574    -3.5121 C.ar    
  14 C14           -2.0612    -4.0619    -2.3071 C.ar    
  15 C15           -2.9794    -4.2499    -4.5699 C.1     
  16 O16           -1.1653    -4.4326     1.0458 O.2     
  17 C17           -3.6526    -3.8338    -5.4371 C.1     
  18 C18           -4.4737    -3.3263    -6.4948 C.ar    
  19 C19           -5.1792    -2.1310    -6.3357 C.ar    
  20 N20           -5.9341    -1.6650    -7.3089 N.ar    
  21 C21           -6.0557    -2.2971    -8.4603 C.ar    
  22 C22           -5.3902    -3.4870    -8.6967 C.ar    
  23 C23           -4.5790    -4.0171    -7.7097 C.ar    
  24 C24            2.2992     1.8499     0.1828 C.ar    
  25 O25            0.1626     1.9357    -1.2192 O.2     
  26 O26           -0.0106     1.9570     1.2742 O.2     
  27 C27            3.0575     1.9792    -0.9658 C.ar    
  28 C28            4.4083     2.2582    -0.8743 C.ar    
  29 C29            5.0007     2.4084     0.3656 C.ar    
  30 C30            4.2422     2.2800     1.5141 C.ar    
  31 C31            2.8905     2.0052     1.4226 C.ar    
  32 H32            1.1142    -1.5408     1.4877 H       
  33 H33            0.1764    -0.1808     2.1584 H       
  34 H34           -1.0599    -2.4222     2.0919 H       
  35 H35           -1.8948    -1.0749     1.2754 H       
  36 H36           -0.7697    -2.4580    -2.0990 H       
  37 H37           -1.7076    -1.0979    -1.4283 H       
  38 H38            0.4597    -0.2166    -2.0334 H       
  39 H39            1.2973    -1.5614    -1.2155 H       
  40 H40            0.0624    -6.1461    -0.6776 H       
  41 H41           -0.1240    -7.3695    -2.8003 H       
  42 H42           -1.5341    -6.4975    -4.6129 H       
  43 H43           -2.6008    -3.1365    -2.1697 H       
  44 H44           -5.1051    -1.5849    -5.4069 H       
  45 H45           -6.6858    -1.8790    -9.2315 H       
  46 H46           -5.4994    -3.9943    -9.6439 H       
  47 H47           -4.0480    -4.9442    -7.8677 H       
  48 H48            2.5947     1.8619    -1.9345 H       
  49 H49            5.0010     2.3586    -1.7716 H       
  50 H50            6.0562     2.6257     0.4370 H       
  51 H51            4.7051     2.3970     2.4828 H       
  52 H52            2.2979     1.9049     2.3198 H       
@<TRIPOS>BOND
   1    1    2 am
   2    1   24 1
   3    1   25 2
   4    1   26 2
   5    2    3 1
   6    2    7 1
   7    3    4 1
   8    3   32 1
   9    3   33 1
  10    4    5 1
  11    4   34 1
  12    4   35 1
  13    5    6 1
  14    5    8 am
  15    6    7 1
  16    6   36 1
  17    6   37 1
  18    7   38 1
  19    7   39 1
  20    8    9 1
  21    8   16 2
  22    9   10 ar
  23    9   14 ar
  24   10   11 ar
  25   10   40 1
  26   11   12 ar
  27   11   41 1
  28   12   13 ar
  29   12   42 1
  30   13   14 ar
  31   13   15 1
  32   14   43 1
  33   15   17 3
  34   17   18 1
  35   18   19 ar
  36   18   23 ar
  37   19   20 ar
  38   19   44 1
  39   20   21 ar
  40   21   22 ar
  41   21   45 1
  42   22   23 ar
  43   22   46 1
  44   23   47 1
  45   24   27 ar
  46   24   31 ar
  47   27   28 ar
  48   27   48 1
  49   28   29 ar
  50   28   49 1
  51   29   30 ar
  52   29   50 1
  53   30   31 ar
  54   30   51 1
  55   31   52 1

#	End of record

