#	Name: ASD02030202
#	Creating user name:	WinNT
#	Creation time:	15. 06. 2019 20:14

#	Modifying user name:	WinNT
#	Modification time:	15. 06. 2019 20:14

#	Program:	/corina/corina34_cracker 3.40 0067  02.08.2006

@<TRIPOS>MOLECULE
ASD02030202
  62   65    0    0    0
SMALL
NO_CHARGES


@<TRIPOS>ATOM
   1 N1            -0.3613     1.4595    -0.3786 N.am    
   2 C2            -0.3784    -0.0095    -0.3375 C.3     
   3 C3            -1.1643    -0.4559     0.9016 C.3     
   4 N4            -2.4426     0.2685     0.9331 N.am    
   5 C5            -2.4255     1.7374     0.8920 C.3     
   6 C6            -1.6394     2.1840    -0.3415 C.3     
   7 C7             0.8059     2.1303    -0.4436 C.2     
   8 C8             2.0861     1.3966    -0.3541 C.2     
   9 N9             3.2842     1.9361    -0.2887 N.2     
  10 N10            2.2311     0.0592    -0.3193 N.2     
  11 C11            3.5130    -0.1912    -0.2384 C.2     
  12 N12            4.1592     0.9927    -0.2201 N.pl3   
  13 O13            0.8058     3.3387    -0.5758 O.2     
  14 C14           -3.6097    -0.4024     0.9981 C.2     
  15 C15           -3.6172    -1.8799     0.9436 C.ar    
  16 O16           -4.6562     0.2073     1.1015 O.2     
  17 C17           -1.3760     3.6893    -0.2652 C.3     
  18 C18           -2.4402     1.8627    -1.6049 C.3     
  19 C19            5.5474     1.1671    -0.1405 C.ar    
  20 C20            6.0881     2.4455    -0.1300 C.ar    
  21 C21            7.4581     2.6142    -0.0509 C.ar    
  22 C22            8.2892     1.5100     0.0174 C.ar    
  23 C23            7.7524     0.2356     0.0071 C.ar    
  24 C24            6.3844     0.0614    -0.0660 C.ar    
  25 C25           -2.7244    -2.6143     1.7263 C.ar    
  26 Cl26           8.1360     4.2123    -0.0377 Cl      
  27 C27           -4.5202    -2.5452     0.1144 C.ar    
  28 C28           -4.5214    -3.9294     0.0686 C.ar    
  29 C29           -3.6260    -4.6509     0.8461 C.ar    
  30 C30           -2.7341    -3.9929     1.6730 C.ar    
  31 O31           -5.3999    -4.5816    -0.7377 O.3     
  32 C32           -5.3455    -6.0095    -0.7354 C.3     
  33 C33           -6.4005    -6.5616    -1.6962 C.3     
  34 C34           -6.3424    -8.0905    -1.6937 C.3     
  35 H35           -0.8613    -0.3950    -1.2355 H       
  36 H36            0.6429    -0.3857    -0.2782 H       
  37 H37           -1.3526    -1.5282     0.8486 H       
  38 H38           -0.5916    -0.2266     1.8002 H       
  39 H39           -3.4467     2.1137     0.8326 H       
  40 H40           -1.9426     2.1229     1.7899 H       
  41 H41            3.9705    -1.1684    -0.1916 H       
  42 H42           -0.7114     3.8999     0.5727 H       
  43 H43           -0.9096     4.0239    -1.1919 H       
  44 H44           -2.3193     4.2164    -0.1222 H       
  45 H45           -3.3945     2.3885    -1.5737 H       
  46 H46           -1.8780     2.1818    -2.4824 H       
  47 H47           -2.6187     0.7887    -1.6585 H       
  48 H48            5.4395     3.3074    -0.1840 H       
  49 H49            9.3592     1.6436     0.0784 H       
  50 H50            8.4036    -0.6244     0.0601 H       
  51 H51            5.9661    -0.9343    -0.0736 H       
  52 H52           -2.0263    -2.1035     2.3729 H       
  53 H53           -5.2166    -1.9826    -0.4898 H       
  54 H54           -3.6293    -5.7303     0.8087 H       
  55 H55           -2.0396    -4.5597     2.2753 H       
  56 H56           -4.3561    -6.3360    -1.0557 H       
  57 H57           -5.5420    -6.3790     0.2711 H       
  58 H58           -7.3899    -6.2351    -1.3760 H       
  59 H59           -6.2041    -6.1922    -2.7027 H       
  60 H60           -5.3530    -8.4170    -2.0140 H       
  61 H61           -6.5388    -8.4599    -0.6872 H       
  62 H62           -7.0940    -8.4838    -2.3782 H       
@<TRIPOS>BOND
   1    1    2 1
   2    1    7 am
   3    1    6 1
   4    2    3 1
   5    2   35 1
   6    2   36 1
   7    3    4 1
   8    3   37 1
   9    3   38 1
  10    4    5 1
  11    4   14 am
  12    5    6 1
  13    5   39 1
  14    5   40 1
  15    6   17 1
  16    6   18 1
  17    7    8 1
  18    7   13 2
  19    8    9 2
  20    8   10 1
  21    9   12 1
  22   10   11 2
  23   11   12 1
  24   11   41 1
  25   12   19 1
  26   14   15 1
  27   14   16 2
  28   15   27 ar
  29   15   25 ar
  30   17   42 1
  31   17   43 1
  32   17   44 1
  33   18   45 1
  34   18   46 1
  35   18   47 1
  36   19   20 ar
  37   19   24 ar
  38   20   21 ar
  39   20   48 1
  40   21   22 ar
  41   21   26 1
  42   22   23 ar
  43   22   49 1
  44   23   24 ar
  45   23   50 1
  46   24   51 1
  47   25   30 ar
  48   25   52 1
  49   27   28 ar
  50   27   53 1
  51   28   29 ar
  52   28   31 1
  53   29   30 ar
  54   29   54 1
  55   30   55 1
  56   31   32 1
  57   32   33 1
  58   32   56 1
  59   32   57 1
  60   33   34 1
  61   33   58 1
  62   33   59 1
  63   34   60 1
  64   34   61 1
  65   34   62 1

#	End of record

