#	Name: ASD00840803
#	Creating user name:	WinNT
#	Creation time:	15. 06. 2019 18:40

#	Modifying user name:	WinNT
#	Modification time:	15. 06. 2019 18:40

#	Program:	/corina/corina34_cracker 3.40 0067  02.08.2006

@<TRIPOS>MOLECULE
ASD00840803
 101  106    0    0    0
SMALL
NO_CHARGES


@<TRIPOS>ATOM
   1 F1             6.0468    -1.9757    -2.0135 F       
   2 N2             1.0509     1.4361    -0.7480 N.ar    
   3 C3             1.3101     0.1434    -0.8512 C.ar    
   4 C4             1.2283    -0.6859     0.2604 C.ar    
   5 C5             0.8710    -0.1417     1.4814 C.ar    
   6 C6             0.6069     1.2196     1.5478 C.ar    
   7 C7             0.7078     1.9838     0.4026 C.ar    
   8 C8             1.5241    -2.1585     0.1379 C.3     
   9 C9             1.2356    -2.8676     1.4437 C.2     
  10 C10            0.7066    -2.7752    -0.9989 C.3     
  11 C11           -0.7549    -2.4749    -0.7868 C.2     
  12 N12           -1.6780    -2.9997    -1.6168 N.am    
  13 O13           -1.1003    -1.7609     0.1307 O.2     
  14 C14           -3.0974    -2.6340    -1.4951 C.3     
  15 C15           -3.6089    -2.2030    -2.8738 C.3     
  16 N16           -3.3217    -3.2608    -3.8518 N.3     
  17 C17           -1.8753    -3.4704    -4.0007 C.3     
  18 C18           -1.2919    -3.9486    -2.6721 C.3     
  19 C19           -3.9466    -2.9635    -5.1476 C.3     
  20 C20           -3.5246    -4.0192    -6.1734 C.3     
  21 C21           -4.2264    -3.7393    -7.5043 C.3     
  22 N22           -5.6814    -3.7750    -7.3088 N.3     
  23 C23           -6.1157    -2.7386    -6.3635 C.3     
  24 C24           -5.4703    -2.9885    -4.9986 C.3     
  25 C25           -6.3879    -3.6479    -8.5905 C.3     
  26 O26            0.1611    -2.9395     2.0017 O.2     
  27 N27            2.3923    -3.4028     1.8685 N.am    
  28 C28            3.0022    -2.3848    -0.0858 C.ar    
  29 C29            3.4496    -3.1386     0.9945 C.ar    
  30 C30            3.8642    -1.9963    -1.0875 C.ar    
  31 C31            5.1998    -2.3549    -1.0316 C.ar    
  32 C32            5.6675    -3.1125     0.0470 C.ar    
  33 C33            4.7894    -3.5029     1.0576 C.ar    
  34 C34            2.2521    -5.9653     2.8628 C.ar    
  35 C35            0.9986    -6.3638     2.4210 C.ar    
  36 C36            3.2712    -6.8913     2.9804 C.ar    
  37 C37            3.0449    -8.2155     2.6582 C.ar    
  38 C38            1.7928    -8.6191     2.2158 C.ar    
  39 C39            0.7689    -7.6923     2.0974 C.ar    
  40 O40            1.5707    -9.9220     1.8995 O.3     
  41 O41           -0.0032    -5.4528     2.3059 O.3     
  42 C42            2.6712   -10.8218     2.0458 C.3     
  43 C43           -1.2675    -5.9336     1.8451 C.3     
  44 C44           -2.2620    -4.7727     1.7806 C.3     
  45 C45           -7.8760    -3.9370    -8.3833 C.3     
  46 C46           -8.6119    -3.8047    -9.7182 C.3     
  47 O47            1.6589    -0.3780    -2.0542 O.3     
  48 C48            2.1517    -0.2245    -4.4152 C.3     
  49 C49            1.6166     0.5018    -3.1794 C.3     
  50 S50            2.5468    -4.2758     3.2672 S.o2    
  51 O51            3.9132    -4.1866     3.6470 O.2     
  52 O52            1.4775    -3.8730     4.1119 O.2     
  53 C53            7.0477    -3.4881     0.1131 C.1     
  54 N54            8.1427    -3.7861     0.1656 N.1     
  55 H55            0.7989    -0.7619     2.3627 H       
  56 H56            0.3252     1.6759     2.4853 H       
  57 H57            0.5038     3.0433     0.4489 H       
  58 H58            1.0301    -2.3524    -1.9500 H       
  59 H59            0.8577    -3.8546    -1.0109 H       
  60 H60           -3.6684    -3.4940    -1.1452 H       
  61 H61           -3.2039    -1.8090    -0.7907 H       
  62 H62           -4.6847    -2.0341    -2.8262 H       
  63 H63           -3.1089    -1.2827    -3.1759 H       
  64 H64           -1.6938    -4.2206    -4.7702 H       
  65 H65           -1.3995    -2.5325    -4.2871 H       
  66 H66           -0.2053    -3.9954    -2.7450 H       
  67 H67           -1.6884    -4.9352    -2.4320 H       
  68 H68           -3.6290    -1.9778    -5.4876 H       
  69 H69           -2.4447    -3.9772    -6.3155 H       
  70 H70           -3.8068    -5.0088    -5.8142 H       
  71 H71           -3.9330    -2.7552    -7.8697 H       
  72 H72           -3.9391    -4.4976    -8.2327 H       
  73 H73           -5.8135    -1.7591    -6.7343 H       
  74 H74           -7.2006    -2.7699    -6.2635 H       
  75 H75           -5.7831    -3.9620    -4.6209 H       
  76 H76           -5.7806    -2.2102    -4.3013 H       
  77 H77           -6.2645    -2.6353    -8.9746 H       
  78 H78           -5.9755    -4.3603    -9.3049 H       
  79 H79            3.4973    -1.4114    -1.9179 H       
  80 H80            5.1509    -4.0880     1.8904 H       
  81 H81            4.2462    -6.5791     3.3244 H       
  82 H82            3.8431    -8.9372     2.7503 H       
  83 H83           -0.2062    -8.0045     1.7537 H       
  84 H84            3.4913   -10.5002     1.4039 H       
  85 H85            3.0023   -10.8249     3.0843 H       
  86 H86            2.3593   -11.8266     1.7609 H       
  87 H87           -1.1511    -6.3679     0.8521 H       
  88 H88           -1.6399    -6.6932     2.5324 H       
  89 H89           -3.2263    -5.1394     1.4290 H       
  90 H90           -2.3784    -4.3384     2.7735 H       
  91 H91           -1.8896    -4.0131     1.0932 H       
  92 H92           -7.9994    -4.9496    -7.9992 H       
  93 H93           -8.2885    -3.2246    -7.6689 H       
  94 H94           -8.4885    -2.7921   -10.1023 H       
  95 H95           -8.1995    -4.5171   -10.4326 H       
  96 H96           -9.6721    -4.0106    -9.5706 H       
  97 H97            1.4863    -1.0500    -4.6680 H       
  98 H98            2.2016     0.4715    -5.2525 H       
  99 H99            3.1485    -0.6125    -4.2054 H       
 100 H100           0.5876     0.8136    -3.3584 H       
 101 H101           2.2322     1.3786    -2.9784 H       
@<TRIPOS>BOND
   1    1   31 1
   2    2    3 ar
   3    2    7 ar
   4    3    4 ar
   5    3   47 1
   6    4    5 ar
   7    4    8 1
   8    5    6 ar
   9    5   55 1
  10    6    7 ar
  11    6   56 1
  12    7   57 1
  13    8    9 1
  14    8   10 1
  15    8   28 1
  16    9   26 2
  17    9   27 am
  18   10   11 1
  19   10   58 1
  20   10   59 1
  21   11   12 am
  22   11   13 2
  23   12   14 1
  24   12   18 1
  25   14   15 1
  26   14   60 1
  27   14   61 1
  28   15   16 1
  29   15   62 1
  30   15   63 1
  31   16   17 1
  32   16   19 1
  33   17   18 1
  34   17   64 1
  35   17   65 1
  36   18   66 1
  37   18   67 1
  38   19   20 1
  39   19   24 1
  40   19   68 1
  41   20   21 1
  42   20   69 1
  43   20   70 1
  44   21   22 1
  45   21   71 1
  46   21   72 1
  47   22   23 1
  48   22   25 1
  49   23   24 1
  50   23   73 1
  51   23   74 1
  52   24   75 1
  53   24   76 1
  54   25   45 1
  55   25   77 1
  56   25   78 1
  57   27   50 am
  58   27   29 1
  59   28   29 ar
  60   28   30 ar
  61   29   33 ar
  62   30   31 ar
  63   30   79 1
  64   31   32 ar
  65   32   33 ar
  66   32   53 1
  67   33   80 1
  68   34   35 ar
  69   34   36 ar
  70   34   50 1
  71   35   41 1
  72   35   39 ar
  73   36   37 ar
  74   36   81 1
  75   37   38 ar
  76   37   82 1
  77   38   39 ar
  78   38   40 1
  79   39   83 1
  80   40   42 1
  81   41   43 1
  82   42   84 1
  83   42   85 1
  84   42   86 1
  85   43   44 1
  86   43   87 1
  87   43   88 1
  88   44   89 1
  89   44   90 1
  90   44   91 1
  91   45   46 1
  92   45   92 1
  93   45   93 1
  94   46   94 1
  95   46   95 1
  96   46   96 1
  97   47   49 1
  98   48   49 1
  99   48   97 1
 100   48   98 1
 101   48   99 1
 102   49  100 1
 103   49  101 1
 104   50   51 2
 105   50   52 2
 106   53   54 3

#	End of record

