#	Name: ASD02560059
#	Creating user name:	WinNT
#	Creation time:	15. 06. 2019 20:24

#	Modifying user name:	WinNT
#	Modification time:	15. 06. 2019 20:24

#	Program:	/corina/corina34_cracker 3.40 0067  02.08.2006

@<TRIPOS>MOLECULE
ASD02560059
  41   44    0    0    0
SMALL
NO_CHARGES


@<TRIPOS>ATOM
   1 C1            -0.0154     1.3612    -0.0409 C.ar    
   2 C2             0.0022    -0.0452    -0.0354 C.ar    
   3 C3            -1.1990    -0.7571    -0.0196 C.ar    
   4 C4            -2.3878    -0.0819    -0.0095 C.ar    
   5 C5            -2.4099     1.3072    -0.0154 C.ar    
   6 C6            -1.2363     2.0281    -0.0258 C.ar    
   7 N7             1.2954     1.7839    -0.0564 N.pl3   
   8 C8             2.1328     0.7018    -0.0607 C.2     
   9 C9             1.4149    -0.4325    -0.0486 C.2     
  10 C10           -1.1850    -2.2640    -0.0142 C.3     
  11 C11           -1.1647    -2.7610     1.4084 C.ar    
  12 N12           -2.3013    -2.9890     2.0431 N.ar    
  13 Cl13          -3.8810    -0.9671     0.0102 Cl      
  14 N14           -0.0106    -2.9729     2.0160 N.ar    
  15 C15            0.0113    -3.4120     3.2725 C.ar    
  16 N16           -1.1292    -3.6370     3.9156 N.ar    
  17 C17           -2.2876    -3.4280     3.2994 C.ar    
  18 N18           -3.4765    -3.6606     3.9640 N.pl3   
  19 C19           -3.4636    -4.2252     5.2385 C.ar    
  20 C20           -2.4981    -5.1711     5.5689 C.ar    
  21 C21           -2.4825    -5.7308     6.8266 C.ar    
  22 C22           -3.4381    -5.3477     7.7722 C.ar    
  23 C23           -4.4067    -4.3971     7.4368 C.ar    
  24 C24           -4.4129    -3.8374     6.1790 C.ar    
  25 N25            1.2170    -3.6334     3.9061 N.pl3   
  26 C26           -3.4253    -5.9280     9.0813 C.1     
  27 N27           -3.4150    -6.3884    10.1198 N.1     
  28 H28           -3.3566     1.8268    -0.0076 H       
  29 H29           -1.2638     3.1078    -0.0299 H       
  30 H30            1.5822     2.7105    -0.0634 H       
  31 H31            3.2116     0.7527    -0.0728 H       
  32 H32            1.8050    -1.4396    -0.0479 H       
  33 H33           -2.0772    -2.6375    -0.5168 H       
  34 H34           -0.2974    -2.6210    -0.5364 H       
  35 H35           -4.3200    -3.4311     3.5437 H       
  36 H36           -1.7604    -5.4669     4.8377 H       
  37 H37           -1.7330    -6.4652     7.0823 H       
  38 H38           -5.1467    -4.0991     8.1648 H       
  39 H39           -5.1606    -3.1027     5.9193 H       
  40 H40            2.0494    -3.4692     3.4359 H       
  41 H41            1.2322    -3.9534     4.8217 H       
@<TRIPOS>BOND
   1    1    2 ar
   2    1    7 1
   3    1    6 ar
   4    2    3 ar
   5    2    9 1
   6    3    4 ar
   7    3   10 1
   8    4    5 ar
   9    4   13 1
  10    5    6 ar
  11    5   28 1
  12    6   29 1
  13    7    8 1
  14    7   30 1
  15    8    9 2
  16    8   31 1
  17    9   32 1
  18   10   11 1
  19   10   33 1
  20   10   34 1
  21   11   12 ar
  22   11   14 ar
  23   12   17 ar
  24   14   15 ar
  25   15   16 ar
  26   15   25 1
  27   16   17 ar
  28   17   18 1
  29   18   19 1
  30   18   35 1
  31   19   20 ar
  32   19   24 ar
  33   20   21 ar
  34   20   36 1
  35   21   22 ar
  36   21   37 1
  37   22   23 ar
  38   22   26 1
  39   23   24 ar
  40   23   38 1
  41   24   39 1
  42   25   40 1
  43   25   41 1
  44   26   27 3

#	End of record

