#	Name: ASD03091350
#	Creating user name:	WinNT
#	Creation time:	15. 06. 2019 20:30

#	Modifying user name:	WinNT
#	Modification time:	15. 06. 2019 20:30

#	Program:	/corina/corina34_cracker 3.40 0067  02.08.2006

@<TRIPOS>MOLECULE
ASD03091350
  48   51    0    0    0
SMALL
NO_CHARGES


@<TRIPOS>ATOM
   1 C1            -0.1203     1.1789     0.1449 C.ar    
   2 C2            -0.0273    -0.2051     0.1964 C.ar    
   3 C3             1.2075    -0.8134     0.1340 C.ar    
   4 C4             2.3554    -0.0368     0.0284 C.ar    
   5 C5             2.2734     1.3359    -0.0203 C.ar    
   6 C6            -1.3095    -0.9851     0.3289 C.3     
   7 C7            -1.0923    -2.4456    -0.0612 C.3     
   8 C8             0.1168    -2.9796     0.7157 C.3     
   9 C9             1.3756    -2.3103     0.1680 C.3     
  10 C10           -0.8135     3.4987     0.0973 C.2     
  11 C11           -1.3288     2.0818     0.1933 C.3     
  12 C12            1.0240     1.9593     0.0367 C.ar    
  13 C13            0.6564     3.3951     0.0015 C.2     
  14 S14            3.9329    -0.8186    -0.0434 S.o2    
  15 O15            4.8862     0.2180    -0.2324 O.2     
  16 O16            3.9798    -1.7284     1.0471 O.2     
  17 N17            3.9622    -1.7377    -1.4207 N.am    
  18 O18            3.8637    -1.1159    -2.6890 O.3     
  19 C19            3.9024    -2.0282    -3.7882 C.3     
  20 C20            3.7906    -1.2621    -5.0811 C.ar    
  21 C21            2.5470    -1.0078    -5.6285 C.ar    
  22 C22            4.9314    -0.8087    -5.7167 C.ar    
  23 C23            4.8289    -0.1060    -6.9027 C.ar    
  24 C24            3.5856     0.1430    -7.4533 C.ar    
  25 C25            2.4445    -0.3050    -6.8145 C.ar    
  26 O26           -1.4733     4.5156     0.1014 O.2     
  27 N27            1.4874     4.3939    -0.0982 N.2     
  28 O28            0.9981     5.7224    -0.1215 O.3     
  29 H29            3.1718     1.9297    -0.1026 H       
  30 H30           -1.6547    -0.9364     1.3616 H       
  31 H31           -2.0654    -0.5474    -0.3231 H       
  32 H32           -1.9778    -3.0287     0.1918 H       
  33 H33           -0.9003    -2.5149    -1.1319 H       
  34 H34            0.0064    -2.7434     1.7741 H       
  35 H35            0.1889    -4.0594     0.5857 H       
  36 H36            1.5656    -2.6738    -0.8419 H       
  37 H37            2.2231    -2.5625     0.8055 H       
  38 H38           -1.9892     1.8670    -0.6468 H       
  39 H39           -1.8622     1.9415     1.1335 H       
  40 H40            4.0469    -2.7020    -1.3585 H       
  41 H41            4.8438    -2.5774    -3.7715 H       
  42 H42            3.0714    -2.7290    -3.7081 H       
  43 H43            1.6556    -1.3585    -5.1298 H       
  44 H44            5.9028    -1.0032    -5.2865 H       
  45 H45            5.7201     0.2488    -7.3989 H       
  46 H46            3.5055     0.6923    -8.3797 H       
  47 H47            1.4729    -0.1067    -7.2424 H       
  48 H48            1.6889     6.3947    -0.1976 H       
@<TRIPOS>BOND
   1    1    2 ar
   2    1   12 ar
   3    1   11 1
   4    2    3 ar
   5    2    6 1
   6    3    4 ar
   7    3    9 1
   8    4    5 ar
   9    4   14 1
  10    5   12 ar
  11    5   29 1
  12    6    7 1
  13    6   30 1
  14    6   31 1
  15    7    8 1
  16    7   32 1
  17    7   33 1
  18    8    9 1
  19    8   34 1
  20    8   35 1
  21    9   36 1
  22    9   37 1
  23   10   11 1
  24   10   13 1
  25   10   26 2
  26   11   38 1
  27   11   39 1
  28   12   13 1
  29   13   27 2
  30   14   15 2
  31   14   16 2
  32   14   17 am
  33   17   18 1
  34   17   40 1
  35   18   19 1
  36   19   20 1
  37   19   41 1
  38   19   42 1
  39   20   22 ar
  40   20   21 ar
  41   21   25 ar
  42   21   43 1
  43   22   23 ar
  44   22   44 1
  45   23   24 ar
  46   23   45 1
  47   24   25 ar
  48   24   46 1
  49   25   47 1
  50   27   28 1
  51   28   48 1

#	End of record

