#	Name: ASD03090807
#	Creating user name:	WinNT
#	Creation time:	15. 06. 2019 20:29

#	Modifying user name:	WinNT
#	Modification time:	15. 06. 2019 20:29

#	Program:	/corina/corina34_cracker 3.40 0067  02.08.2006

@<TRIPOS>MOLECULE
ASD03090807
  46   49    0    0    0
SMALL
NO_CHARGES


@<TRIPOS>ATOM
   1 N1            -0.0164     1.3555     0.0095 N.am    
   2 C2             0.0021    -0.0041     0.0020 C.2     
   3 N3            -1.0705    -0.7359     0.0083 N.2     
   4 C4            -2.3073    -0.1810     0.0231 C.ar    
   5 C5            -2.4253     1.2281     0.0318 C.ar    
   6 C6            -1.1917     2.0288     0.0300 C.2     
   7 O7            -1.2254     3.2452     0.0371 O.2     
   8 C8            -3.4722    -0.9507     0.0296 C.ar    
   9 N9            -4.6514    -0.3664     0.0435 N.ar    
  10 C10           -4.7970     0.9518     0.0521 C.ar    
  11 C11           -3.6946     1.7973     0.0460 C.ar    
  12 N12           -6.0773     1.4981     0.0663 N.3     
  13 C13           -7.1001     0.4428     0.0695 C.3     
  14 C14           -8.2693     0.8395     0.9584 C.3     
  15 C15           -9.1507     1.9117     0.3502 C.3     
  16 N16           -8.7296     2.2466    -1.0177 N.3     
  17 C17           -7.5859     3.1707    -0.9797 C.3     
  18 C18           -6.2744     2.4062    -1.0698 C.3     
  19 C19           -8.5837     1.0814    -1.8635 C.3     
  20 C20           -7.5041     0.1368    -1.3611 C.3     
  21 C21            1.2461     2.0988     0.0014 C.3     
  22 C22            1.3392    -0.6989    -0.0150 C.3     
  23 C23            1.1266    -2.2141    -0.0210 C.3     
  24 H24           -3.4054    -2.0286     0.0227 H       
  25 H25           -3.8199     2.8700     0.0534 H       
  26 H26           -6.6515    -0.4603     0.4833 H       
  27 H27           -8.8771    -0.0444     1.1517 H       
  28 H28           -7.8781     1.2057     1.9076 H       
  29 H29          -10.1807     1.5555     0.3283 H       
  30 H30           -9.0986     2.8081     0.9682 H       
  31 H31           -7.6561     3.8635    -1.8182 H       
  32 H32           -7.6100     3.7336    -0.0466 H       
  33 H33           -5.4510     3.1199    -1.0983 H       
  34 H34           -6.2673     1.8248    -1.9918 H       
  35 H35           -9.5333     0.5473    -1.8964 H       
  36 H36           -8.3278     1.4063    -2.8719 H       
  37 H37           -6.6281     0.2264    -2.0035 H       
  38 H38           -7.8763    -0.8863    -1.4131 H       
  39 H39            1.5493     2.2886    -1.0282 H       
  40 H40            1.1126     3.0473     0.5217 H       
  41 H41            2.0155     1.5134     0.5048 H       
  42 H42            1.8897    -0.4057    -0.9089 H       
  43 H43            1.9074    -0.4153     0.8710 H       
  44 H44            2.0937    -2.7166    -0.0333 H       
  45 H45            0.5761    -2.5073     0.8729 H       
  46 H46            0.5584    -2.4977    -0.9069 H       
@<TRIPOS>BOND
   1    1    2 1
   2    1   21 1
   3    1    6 am
   4    2    3 2
   5    2   22 1
   6    3    4 1
   7    4    5 ar
   8    4    8 ar
   9    5    6 1
  10    5   11 ar
  11    6    7 2
  12    8    9 ar
  13    8   24 1
  14    9   10 ar
  15   10   11 ar
  16   10   12 1
  17   11   25 1
  18   12   13 1
  19   12   18 1
  20   13   14 1
  21   13   20 1
  22   13   26 1
  23   14   15 1
  24   14   27 1
  25   14   28 1
  26   15   16 1
  27   15   29 1
  28   15   30 1
  29   16   17 1
  30   16   19 1
  31   17   18 1
  32   17   31 1
  33   17   32 1
  34   18   33 1
  35   18   34 1
  36   19   20 1
  37   19   35 1
  38   19   36 1
  39   20   37 1
  40   20   38 1
  41   21   39 1
  42   21   40 1
  43   21   41 1
  44   22   23 1
  45   22   42 1
  46   22   43 1
  47   23   44 1
  48   23   45 1
  49   23   46 1

#	End of record

