#	Name: ASD03330467
#	Creating user name:	WinNT
#	Creation time:	15. 06. 2019 20:37

#	Modifying user name:	WinNT
#	Modification time:	15. 06. 2019 20:37

#	Program:	/corina/corina34_cracker 3.40 0067  02.08.2006

@<TRIPOS>MOLECULE
ASD03330467
  60   62    0    0    0
SMALL
NO_CHARGES


@<TRIPOS>ATOM
   1 C1            -1.0072     2.2051    -2.3711 C.3     
   2 N2            -0.8769     0.8462    -1.8268 N.3     
   3 C3            -0.0920    -0.0156    -2.7291 C.3     
   4 C4             1.1780     0.7145    -3.0826 C.2     
   5 N5             1.3637     2.0454    -2.8806 N.pl3   
   6 C6             0.3455     2.9252    -2.2998 C.3     
   7 C7             2.3173     0.2287    -3.6356 C.2     
   8 N8             3.1838     1.2596    -3.7627 N.2     
   9 C9             2.6156     2.3546    -3.3093 C.2     
  10 C10            3.2348     3.6978    -3.2719 C.ar    
  11 C11            2.5663    -1.1700    -4.0271 C.2     
  12 O12            1.7032    -2.0107    -3.8615 O.2     
  13 C13            3.9980    -2.9081    -4.9581 C.3     
  14 N14            3.7505    -1.5176    -4.5688 N.am    
  15 C15           -2.1958     0.2596    -1.5538 C.3     
  16 C16            3.8496     4.2176    -4.4111 C.ar    
  17 C17            4.4881    -3.6983    -3.7431 C.3     
  18 C18            3.3740    -3.7680    -2.6968 C.3     
  19 C19            4.8700    -5.1151    -4.1765 C.3     
  20 C20            5.7103    -3.0022    -3.1412 C.3     
  21 C21            5.0467    -2.9479    -6.0396 C.2     
  22 O22            5.7289    -1.9695    -6.2591 O.2     
  23 N23            5.2264    -4.0708    -6.7630 N.am    
  24 C24            6.2965    -4.1355    -7.7615 C.3     
  25 C25            4.4253     5.4710    -4.3697 C.ar    
  26 C26            4.3940     6.2115    -3.2018 C.ar    
  27 C27            3.7861     5.7013    -2.0683 C.ar    
  28 C28            3.2012     4.4523    -2.0986 C.ar    
  29 C29            3.8854     3.4118    -5.6840 C.3     
  30 F30            4.5500     4.1387    -6.6775 F       
  31 F31            4.5615     2.2085    -5.4554 F       
  32 F32            2.5778     3.1401    -6.1009 F       
  33 H33           -1.3339     2.1497    -3.4095 H       
  34 H34           -1.7439     2.7593    -1.7895 H       
  35 H35            0.1493    -0.9523    -2.2265 H       
  36 H36           -0.6641    -0.2192    -3.6342 H       
  37 H37            0.2972     3.8555    -2.8657 H       
  38 H38            0.5939     3.1390    -1.2602 H       
  39 H39            3.0744    -3.3509    -5.3311 H       
  40 H40            4.4388    -0.8471    -4.7009 H       
  41 H41           -2.7961     0.2764    -2.4634 H       
  42 H42           -2.0731    -0.7702    -1.2184 H       
  43 H43           -2.6967     0.8375    -0.7771 H       
  44 H44            2.5033    -4.2639    -3.1256 H       
  45 H45            3.7232    -4.3310    -1.8312 H       
  46 H46            3.1019    -2.7586    -2.3880 H       
  47 H47            5.5868    -5.0635    -4.9961 H       
  48 H48            5.3177    -5.6441    -3.3351 H       
  49 H49            3.9778    -5.6469    -4.5069 H       
  50 H50            5.4382    -1.9928    -2.8325 H       
  51 H51            6.0595    -3.5652    -2.2756 H       
  52 H52            6.5040    -2.9526    -3.8866 H       
  53 H53            4.6473    -4.8361    -6.6225 H       
  54 H54            6.2867    -5.1140    -8.2416 H       
  55 H55            6.1402    -3.3608    -8.5122 H       
  56 H56            7.2586    -3.9797    -7.2735 H       
  57 H57            4.9016     5.8746    -5.2510 H       
  58 H58            4.8463     7.1918    -3.1744 H       
  59 H59            3.7653     6.2842    -1.1593 H       
  60 H60            2.7267     4.0553    -1.2134 H       
@<TRIPOS>BOND
   1    1    2 1
   2    1    6 1
   3    1   33 1
   4    1   34 1
   5    2    3 1
   6    2   15 1
   7    3    4 1
   8    3   35 1
   9    3   36 1
  10    4    5 1
  11    4    7 2
  12    5    6 1
  13    5    9 1
  14    6   37 1
  15    6   38 1
  16    7    8 1
  17    7   11 1
  18    8    9 2
  19    9   10 1
  20   10   16 ar
  21   10   28 ar
  22   11   12 2
  23   11   14 am
  24   13   14 1
  25   13   17 1
  26   13   21 1
  27   13   39 1
  28   14   40 1
  29   15   41 1
  30   15   42 1
  31   15   43 1
  32   16   25 ar
  33   16   29 1
  34   17   18 1
  35   17   19 1
  36   17   20 1
  37   18   44 1
  38   18   45 1
  39   18   46 1
  40   19   47 1
  41   19   48 1
  42   19   49 1
  43   20   50 1
  44   20   51 1
  45   20   52 1
  46   21   22 2
  47   21   23 am
  48   23   24 1
  49   23   53 1
  50   24   54 1
  51   24   55 1
  52   24   56 1
  53   25   26 ar
  54   25   57 1
  55   26   27 ar
  56   26   58 1
  57   27   28 ar
  58   27   59 1
  59   28   60 1
  60   29   30 1
  61   29   31 1
  62   29   32 1

#	End of record

