#	Name: ASD01914052
#	Creating user name:	WinNT
#	Creation time:	15. 06. 2019 20:02

#	Modifying user name:	WinNT
#	Modification time:	15. 06. 2019 20:02

#	Program:	/corina/corina34_cracker 3.40 0067  02.08.2006

@<TRIPOS>MOLECULE
ASD01914052
  42   44    0    0    0
SMALL
NO_CHARGES


@<TRIPOS>ATOM
   1 C1            -0.0162     1.3755    -0.0476 C.ar    
   2 C2             0.0030    -0.0070    -0.0582 C.ar    
   3 C3             1.2085    -0.6839    -0.0691 C.ar    
   4 C4             2.3807     1.4070    -0.0587 C.ar    
   5 C5             1.1698     2.0839    -0.0478 C.ar    
   6 O6             3.5488     2.1017    -0.0585 O.3     
   7 C7             4.7572     1.3390    -0.0700 C.3     
   8 C8             5.9404     2.2723    -0.0680 C.ar    
   9 N9             7.1612     1.7723    -0.0775 N.ar    
  10 C10            8.2287     2.5435    -0.0767 C.ar    
  11 C11            8.1003     3.9329    -0.0650 C.ar    
  12 C12            6.8170     4.4934    -0.0548 C.ar    
  13 C13            5.7285     3.6395    -0.0619 C.ar    
  14 C14            9.2985     4.7983    -0.0631 C.2     
  15 N15           10.5282     4.2468    -0.0726 N.am    
  16 O16            9.1748     6.0076    -0.0530 O.2     
  17 C17            2.3973     0.0199    -0.0693 C.ar    
  18 C18           11.6592     5.0617    -0.1837 C.ar    
  19 C19           12.8301     4.7214     0.4810 C.ar    
  20 C20           13.8970     6.6742    -0.4033 C.ar    
  21 C21           12.7342     7.0129    -1.0711 C.ar    
  22 C22           11.6157     6.2104    -0.9636 C.ar    
  23 C23           13.9454     5.5285     0.3693 C.ar    
  24 C24           15.2163     5.1603     1.0906 C.3     
  25 F25           16.0053     4.3540     0.2632 F       
  26 F26           15.9210     6.3238     1.4173 F       
  27 F27           14.9024     4.4611     2.2610 F       
  28 H28           -0.9591     1.9020    -0.0436 H       
  29 H29           -0.9253    -0.5590    -0.0577 H       
  30 H30            1.2209    -1.7638    -0.0770 H       
  31 H31            1.1543     3.1638    -0.0399 H       
  32 H32            4.7942     0.7035     0.8148 H       
  33 H33            4.7861     0.7176    -0.9651 H       
  34 H34            9.2119     2.0967    -0.0847 H       
  35 H35            6.6806     5.5647    -0.0456 H       
  36 H36            4.7239     4.0360    -0.0544 H       
  37 H37           10.6287     3.2845    -0.0024 H       
  38 H38            3.3387    -0.5094    -0.0778 H       
  39 H39           12.8684     3.8268     1.0849 H       
  40 H40           14.7705     7.3035    -0.4890 H       
  41 H41           12.6996     7.9085    -1.6738 H       
  42 H42           10.7081     6.4752    -1.4857 H       
@<TRIPOS>BOND
   1    1    2 ar
   2    1    5 ar
   3    1   28 1
   4    2    3 ar
   5    2   29 1
   6    3   17 ar
   7    3   30 1
   8    4    5 ar
   9    4    6 1
  10    4   17 ar
  11    5   31 1
  12    6    7 1
  13    7    8 1
  14    7   32 1
  15    7   33 1
  16    8    9 ar
  17    8   13 ar
  18    9   10 ar
  19   10   11 ar
  20   10   34 1
  21   11   12 ar
  22   11   14 1
  23   12   13 ar
  24   12   35 1
  25   13   36 1
  26   14   15 am
  27   14   16 2
  28   15   18 1
  29   15   37 1
  30   17   38 1
  31   18   19 ar
  32   18   22 ar
  33   19   23 ar
  34   19   39 1
  35   20   21 ar
  36   20   23 ar
  37   20   40 1
  38   21   22 ar
  39   21   41 1
  40   22   42 1
  41   23   24 1
  42   24   25 1
  43   24   26 1
  44   24   27 1

#	End of record

