#	Name: ASD05842031
#	Creating user name:	WinNT
#	Creation time:	15. 06. 2019 21:04

#	Modifying user name:	WinNT
#	Modification time:	15. 06. 2019 21:04

#	Program:	/corina/corina34_cracker 3.40 0067  02.08.2006

@<TRIPOS>MOLECULE
ASD05842031
  55   57    0    0    0
SMALL
NO_CHARGES


@<TRIPOS>ATOM
   1 C1            -0.0381     1.4778    -0.0446 C.ar    
   2 C2            -0.0566     0.0956    -0.0295 C.ar    
   3 C3            -1.2628    -0.5796    -0.0324 C.ar    
   4 C4            -2.4506     0.1274    -0.0500 C.ar    
   5 C5            -2.4321     1.5096    -0.0641 C.ar    
   6 C6            -1.2259     2.1848    -0.0568 C.ar    
   7 C7             1.2769     2.2138    -0.0415 C.3     
   8 N8             1.7160     2.4377    -1.4253 N.3     
   9 C9             2.9351     3.2564    -1.4649 C.3     
  10 C10            3.2354     3.6545    -2.9113 C.3     
  11 C11            4.4860     4.4943    -2.9519 C.ar    
  12 C12            5.7197     3.8900    -3.1058 C.ar    
  13 C13            6.8669     4.6604    -3.1430 C.ar    
  14 C14            6.7803     6.0352    -3.0267 C.ar    
  15 C15            5.5465     6.6395    -2.8737 C.ar    
  16 C16            4.3990     5.8695    -2.8409 C.ar    
  17 C17            1.1297     0.9387    -3.1378 C.2     
  18 C18            1.3339    -0.3693    -3.8579 C.3     
  19 O19            0.2711     1.7093    -3.5120 O.2     
  20 N20            1.9011     1.2521    -2.0781 N.am    
  21 N21            0.2866    -0.5375    -4.8742 N.3     
  22 C22           -1.0326    -0.6965    -4.2489 C.3     
  23 C23           -2.1125    -0.7228    -5.3330 C.3     
  24 C24           -1.8381    -1.8847    -6.2918 C.3     
  25 C25           -0.4391    -1.7209    -6.8924 C.3     
  26 C26            0.5923    -1.6656    -5.7632 C.3     
  27 H27            0.8714    -0.4567    -0.0158 H       
  28 H28           -1.2773    -1.6594    -0.0214 H       
  29 H29           -3.3930    -0.4001    -0.0530 H       
  30 H30           -3.3601     2.0619    -0.0782 H       
  31 H31           -1.2115     3.2646    -0.0679 H       
  32 H32            1.1549     3.1735     0.4608 H       
  33 H33            2.0242     1.6204     0.4853 H       
  34 H34            2.7897     4.1539    -0.8637 H       
  35 H35            3.7711     2.6827    -1.0649 H       
  36 H36            3.3808     2.7569    -3.5125 H       
  37 H37            2.3993     4.2282    -3.3113 H       
  38 H38            5.7873     2.8160    -3.1966 H       
  39 H39            7.8308     4.1882    -3.2625 H       
  40 H40            7.6766     6.6370    -3.0550 H       
  41 H41            5.4789     7.7136    -2.7825 H       
  42 H42            3.4350     6.3417    -2.7214 H       
  43 H43            2.3115    -0.3698    -4.3401 H       
  44 H44            1.2813    -1.1900    -3.1426 H       
  45 H45            2.5878     0.6358    -1.7788 H       
  46 H46           -1.0584    -1.6306    -3.6878 H       
  47 H47           -1.2170     0.1384    -3.5728 H       
  48 H48           -3.0900    -0.8565    -4.8697 H       
  49 H49           -2.0965     0.2166    -5.8856 H       
  50 H50           -1.8925    -2.8272    -5.7470 H       
  51 H51           -2.5800    -1.8811    -7.0903 H       
  52 H52           -0.2211    -2.5677    -7.5433 H       
  53 H53           -0.3968    -0.7972    -7.4695 H       
  54 H54            1.5880    -1.5347    -6.1868 H       
  55 H55            0.5589    -2.5952    -5.1950 H       
@<TRIPOS>BOND
   1    1    2 ar
   2    1    7 1
   3    1    6 ar
   4    2    3 ar
   5    2   27 1
   6    3    4 ar
   7    3   28 1
   8    4    5 ar
   9    4   29 1
  10    5    6 ar
  11    5   30 1
  12    6   31 1
  13    7    8 1
  14    7   32 1
  15    7   33 1
  16    8    9 1
  17    8   20 1
  18    9   10 1
  19    9   34 1
  20    9   35 1
  21   10   11 1
  22   10   36 1
  23   10   37 1
  24   11   12 ar
  25   11   16 ar
  26   12   13 ar
  27   12   38 1
  28   13   14 ar
  29   13   39 1
  30   14   15 ar
  31   14   40 1
  32   15   16 ar
  33   15   41 1
  34   16   42 1
  35   17   18 1
  36   17   19 2
  37   17   20 am
  38   18   21 1
  39   18   43 1
  40   18   44 1
  41   20   45 1
  42   21   22 1
  43   21   26 1
  44   22   23 1
  45   22   46 1
  46   22   47 1
  47   23   24 1
  48   23   48 1
  49   23   49 1
  50   24   25 1
  51   24   50 1
  52   24   51 1
  53   25   26 1
  54   25   52 1
  55   25   53 1
  56   26   54 1
  57   26   55 1

#	End of record

