#	Name: ASD01910759
#	Creating user name:	WinNT
#	Creation time:	15. 06. 2019 19:56

#	Modifying user name:	WinNT
#	Modification time:	15. 06. 2019 19:56

#	Program:	/corina/corina34_cracker 3.40 0067  02.08.2006

@<TRIPOS>MOLECULE
ASD01910759
  54   57    0    0    0
SMALL
NO_CHARGES


@<TRIPOS>ATOM
   1 C1            -0.0421     1.3926     0.1857 C.ar    
   2 C2             1.1455     2.0980     0.2389 C.ar    
   3 C3             2.3551     1.4289     0.1893 C.ar    
   4 C4             2.3791     0.0470     0.0855 C.ar    
   5 C5             1.1802    -0.6655     0.0318 C.ar    
   6 C6            -0.0280     0.0137     0.0826 C.ar    
   7 N7             3.6023    -0.6321     0.0342 N.3     
   8 C8             3.8048    -1.4438     1.2417 C.3     
   9 C9             5.0593    -2.3067     1.0687 C.3     
  10 N10            6.1847    -1.4290     0.7133 N.am    
  11 C11            6.0076    -0.4876    -0.4028 C.3     
  12 C12            4.7157     0.3037    -0.1718 C.3     
  13 C13            7.3477    -1.4861     1.3921 C.2     
  14 C14            8.5108    -0.6964     0.9338 C.ar    
  15 O15            7.4404    -2.1868     2.3810 O.2     
  16 C16            9.3790    -0.1240     1.8661 C.ar    
  17 C17           10.4664     0.6137     1.4407 C.ar    
  18 C18           10.7037     0.7911     0.0927 C.ar    
  19 C19            9.8428     0.2238    -0.8522 C.ar    
  20 C20            8.7460    -0.5266    -0.4287 C.ar    
  21 C21           10.0894     0.4087    -2.2506 C.1     
  22 C22           10.2917     0.5603    -3.3971 C.1     
  23 C23           10.5384     0.7452    -4.7955 C.ar    
  24 C24            9.6791     0.1790    -5.7408 C.ar    
  25 C25            9.9227     0.3618    -7.0860 C.ar    
  26 C26           11.0152     1.1032    -7.5002 C.ar    
  27 C27           11.8707     1.6665    -6.5698 C.ar    
  28 C28           11.6362     1.4975    -5.2213 C.ar    
  29 S29            1.2015    -2.4223    -0.1008 S.3     
  30 C30           -0.5610    -2.8505    -0.1330 C.3     
  31 H31           -0.9837     1.9197     0.2293 H       
  32 H32            1.1288     3.1749     0.3190 H       
  33 H33            3.2810     1.9834     0.2311 H       
  34 H34           -0.9577    -0.5344     0.0416 H       
  35 H35            3.9302    -0.7884     2.1036 H       
  36 H36            2.9390    -2.0876     1.3967 H       
  37 H37            5.2793    -2.8243     2.0024 H       
  38 H38            4.8967    -3.0338     0.2731 H       
  39 H39            6.8545     0.1974    -0.4420 H       
  40 H40            5.9361    -1.0399    -1.3398 H       
  41 H41            4.5106     0.9271    -1.0421 H       
  42 H42            4.8284     0.9347     0.7098 H       
  43 H43            9.1995    -0.2583     2.9226 H       
  44 H44           11.1341     1.0542     2.1664 H       
  45 H45           11.5556     1.3694    -0.2331 H       
  46 H46            8.0776    -0.9672    -1.1537 H       
  47 H47            8.8265    -0.4005    -5.4189 H       
  48 H48            9.2595    -0.0752    -7.8178 H       
  49 H49           11.2012     1.2427    -8.5549 H       
  50 H50           12.7218     2.2434    -6.9005 H       
  51 H51           12.3048     1.9377    -4.4962 H       
  52 H52           -1.0356    -2.5054     0.7855 H       
  53 H53           -1.0357    -2.3715    -0.9894 H       
  54 H54           -0.6708    -3.9319    -0.2146 H       
@<TRIPOS>BOND
   1    1    2 ar
   2    1    6 ar
   3    1   31 1
   4    2    3 ar
   5    2   32 1
   6    3    4 ar
   7    3   33 1
   8    4    5 ar
   9    4    7 1
  10    5    6 ar
  11    5   29 1
  12    6   34 1
  13    7    8 1
  14    7   12 1
  15    8    9 1
  16    8   35 1
  17    8   36 1
  18    9   10 1
  19    9   37 1
  20    9   38 1
  21   10   11 1
  22   10   13 am
  23   11   12 1
  24   11   39 1
  25   11   40 1
  26   12   41 1
  27   12   42 1
  28   13   14 1
  29   13   15 2
  30   14   16 ar
  31   14   20 ar
  32   16   17 ar
  33   16   43 1
  34   17   18 ar
  35   17   44 1
  36   18   19 ar
  37   18   45 1
  38   19   20 ar
  39   19   21 1
  40   20   46 1
  41   21   22 3
  42   22   23 1
  43   23   24 ar
  44   23   28 ar
  45   24   25 ar
  46   24   47 1
  47   25   26 ar
  48   25   48 1
  49   26   27 ar
  50   26   49 1
  51   27   28 ar
  52   27   50 1
  53   28   51 1
  54   29   30 1
  55   30   52 1
  56   30   53 1
  57   30   54 1

#	End of record

