#	Name: ASD01917960
#	Creating user name:	WinNT
#	Creation time:	15. 06. 2019 20:10

#	Modifying user name:	WinNT
#	Modification time:	15. 06. 2019 20:10

#	Program:	/corina/corina34_cracker 3.40 0067  02.08.2006

@<TRIPOS>MOLECULE
ASD01917960
  39   42    0    0    0
SMALL
NO_CHARGES


@<TRIPOS>ATOM
   1 N1             4.7271    -0.5764    -2.1717 N.ar    
   2 C2             5.2113     0.1532    -3.1566 C.ar    
   3 N3             5.1526     1.4698    -3.1419 N.ar    
   4 C4             4.5992     2.1134    -2.1274 C.ar    
   5 C5             4.0755     1.3801    -1.0675 C.ar    
   6 C6             4.1580    -0.0076    -1.1216 C.ar    
   7 O7             3.4991     2.0032    -0.0062 O.3     
   8 C8             3.5511     3.3616     0.0422 C.2     
   9 N9             2.4082     5.4385    -0.0253 N.pl3   
  10 C10            2.4051     4.0769    -0.0678 C.2     
  11 C11            4.7886     3.9986     0.2108 C.2     
  12 C12            4.8384     5.3859     0.2599 C.2     
  13 C13            3.5840     6.1299     0.1322 C.2     
  14 C14            6.1193     6.0897     0.4363 C.2     
  15 N15            6.1475     7.4364     0.4815 N.am    
  16 C16            7.3421     8.0993     0.7535 C.ar    
  17 N17            8.4665     7.4076     0.8595 N.ar    
  18 C18            7.3434     9.4805     0.9056 C.ar    
  19 C19            8.5369    10.1284     1.1759 C.ar    
  20 C20            9.6925     9.3695     1.2852 C.ar    
  21 C21            9.6201     7.9971     1.1165 C.ar    
  22 O22            7.1521     5.4559     0.5412 O.2     
  23 C23            1.4320     6.3845    -0.1083 C.2     
  24 N24            2.0097     7.5537    -0.0141 N.2     
  25 N25            3.2803     7.4126     0.1348 N.2     
  26 C26            5.8510    -0.5377    -4.3332 C.3     
  27 F27           10.7427     7.2522     1.2165 F       
  28 H28            4.5549     3.1925    -2.1218 H       
  29 H29            3.7633    -0.6117    -0.3181 H       
  30 H30            1.4676     3.5552    -0.1923 H       
  31 H31            5.6938     3.4167     0.3020 H       
  32 H32            5.3360     7.9441     0.3245 H       
  33 H33            6.4252    10.0416     0.8138 H       
  34 H34            8.5672    11.2010     1.2985 H       
  35 H35           10.6395     9.8444     1.4949 H       
  36 H36            0.3752     6.2026    -0.2364 H       
  37 H37            5.0943    -0.7400    -5.0912 H       
  38 H38            6.6249     0.1038    -4.7545 H       
  39 H39            6.2965    -1.4768    -4.0049 H       
@<TRIPOS>BOND
   1    1    2 ar
   2    1    6 ar
   3    2    3 ar
   4    2   26 1
   5    3    4 ar
   6    4    5 ar
   7    4   28 1
   8    5    6 ar
   9    5    7 1
  10    6   29 1
  11    7    8 1
  12    8   11 1
  13    8   10 2
  14    9   10 1
  15    9   23 1
  16    9   13 1
  17   10   30 1
  18   11   12 2
  19   11   31 1
  20   12   13 1
  21   12   14 1
  22   13   25 2
  23   14   15 am
  24   14   22 2
  25   15   16 1
  26   15   32 1
  27   16   18 ar
  28   16   17 ar
  29   17   21 ar
  30   18   19 ar
  31   18   33 1
  32   19   20 ar
  33   19   34 1
  34   20   21 ar
  35   20   35 1
  36   21   27 1
  37   23   24 2
  38   23   36 1
  39   24   25 1
  40   26   37 1
  41   26   38 1
  42   26   39 1

#	End of record

