#	Name: ASD05720133
#	Creating user name:	WinNT
#	Creation time:	15. 06. 2019 21:01

#	Modifying user name:	WinNT
#	Modification time:	15. 06. 2019 21:01

#	Program:	/corina/corina34_cracker 3.40 0067  02.08.2006

@<TRIPOS>MOLECULE
ASD05720133
  82   85    0    0    0
SMALL
NO_CHARGES


@<TRIPOS>ATOM
   1 O1             0.5137     1.1065    -1.2335 O.3     
   2 C2             1.7200     1.8109    -0.9327 C.3     
   3 C3             1.3836     3.1014    -0.1828 C.3     
   4 C4             2.6753     3.8556     0.1393 C.3     
   5 C5             3.4045     4.1970    -1.1617 C.3     
   6 C6             3.7409     2.9065    -1.9116 C.3     
   7 C7             2.4493     2.1523    -2.2337 C.3     
   8 O8             0.7026     2.7825     1.0323 O.3     
   9 C9             4.6962     4.9512    -0.8395 C.3     
  10 C10            4.3536     6.3136    -0.2335 C.3     
  11 C11            5.6416     7.0193     0.1956 C.3     
  12 C12            6.3680     6.1659     1.2372 C.3     
  13 C13            7.7147     6.8091     1.5741 C.3     
  14 C14            3.6272     7.1670    -1.2751 C.3     
  15 O15            5.3165     8.3123     0.7707 O.3     
  16 C16            6.2294     9.2868     0.6342 C.2     
  17 C17            5.9617    10.6555     1.2053 C.3     
  18 N18            7.2309    11.3773     1.3615 N.3     
  19 C19            7.0180    12.7033     1.9555 C.3     
  20 C20            6.1323    13.5417     1.0310 C.3     
  21 C21            4.7914    12.8293     0.8328 C.3     
  22 C22            5.0444    11.4327     0.2584 C.3     
  23 O23            7.2657     9.0668     0.0533 O.2     
  24 H24            2.7642     4.8223    -1.7838 H       
  25 C25           -0.2199     3.7857     1.4621 C.3     
  26 C26            0.6684    -0.3129    -1.2915 C.3     
  27 C27           -0.6790    -0.9599    -1.6186 C.3     
  28 N28           -1.0986    -0.5605    -2.9642 N.2     
  29 C29           -1.1981    -1.4565    -3.9106 C.2     
  30 N30           -1.5727    -1.2459    -5.2038 N.pl3   
  31 C31           -1.6138    -2.3383    -6.0538 C.ar    
  32 C32           -1.2569    -3.5503    -5.4635 C.ar    
  33 S33           -0.8664    -3.1911    -3.7760 S.3     
  34 C34           -1.2493    -4.7309    -6.1853 C.ar    
  35 C35           -1.6007    -4.7250    -7.5218 C.ar    
  36 C36           -1.9578    -3.5325    -8.1257 C.ar    
  37 C37           -1.9667    -2.3564    -7.4116 C.ar    
  38 C38           -1.9215     0.0949    -5.6799 C.3     
  39 H39            2.3604     1.1856    -0.3106 H       
  40 H40            0.7433     3.7267    -0.8049 H       
  41 H41            2.4356     4.7749     0.6736 H       
  42 H42            3.3156     3.2302     0.7614 H       
  43 H43            4.2604     3.1497    -2.8384 H       
  44 H44            4.3813     2.2812    -1.2894 H       
  45 H45            2.6889     1.2329    -2.7679 H       
  46 H46            1.8089     2.7777    -2.8558 H       
  47 H47            5.2856     4.3743    -0.1268 H       
  48 H48            5.2710     5.0946    -1.7545 H       
  49 H49            3.7095     6.1735     0.6346 H       
  50 H50            6.2857     7.1593    -0.6726 H       
  51 H51            5.7609     6.0997     2.1400 H       
  52 H52            6.5332     5.1658     0.8363 H       
  53 H53            8.2322     6.2011     2.3162 H       
  54 H54            8.3218     6.8753     0.6712 H       
  55 H55            7.5495     7.8092     1.9750 H       
  56 H56            2.6605     6.7178    -1.5027 H       
  57 H57            3.4770     8.1720    -0.8807 H       
  58 H58            4.2266     7.2192    -2.1840 H       
  59 H59            5.4789    10.5552     2.1774 H       
  60 H60            7.8886    10.8389     1.9052 H       
  61 H61            6.5303    12.5933     2.9241 H       
  62 H62            7.9789    13.2008     2.0873 H       
  63 H63            5.9616    14.5203     1.4796 H       
  64 H64            6.6256    13.6637     0.0667 H       
  65 H65            4.2802    12.7418     1.7915 H       
  66 H66            4.1738    13.4015     0.1405 H       
  67 H67            5.5206    11.5215    -0.7180 H       
  68 H68            4.0965    10.9046     0.1550 H       
  69 H69           -0.6952     3.4686     2.3903 H       
  70 H70            0.3129     4.7220     1.6282 H       
  71 H71           -0.9810     3.9318     0.6956 H       
  72 H72            1.3916    -0.5682    -2.0660 H       
  73 H73            1.0231    -0.6793    -0.3281 H       
  74 H74           -0.5812    -2.0446    -1.5754 H       
  75 H75           -1.4244    -0.6332    -0.8936 H       
  76 H76           -0.9686    -5.6563    -5.7044 H       
  77 H77           -1.5962    -5.6434    -8.0901 H       
  78 H78           -2.2329    -3.5247    -9.1700 H       
  79 H79           -2.2490    -1.4365    -7.9020 H       
  80 H80           -1.8252     0.8078    -4.8610 H       
  81 H81           -1.2497     0.3791    -6.4899 H       
  82 H82           -2.9492     0.0955    -6.0432 H       
@<TRIPOS>BOND
   1    1   26 1
   2    1    2 1
   3    2    3 1
   4    2    7 1
   5    2   39 1
   6    3    4 1
   7    3    8 1
   8    3   40 1
   9    4    5 1
  10    4   41 1
  11    4   42 1
  12    5    6 1
  13    5    9 1
  14    5   24 1
  15    6    7 1
  16    6   43 1
  17    6   44 1
  18    7   45 1
  19    7   46 1
  20    8   25 1
  21    9   10 1
  22    9   47 1
  23    9   48 1
  24   10   14 1
  25   10   11 1
  26   10   49 1
  27   11   12 1
  28   11   15 1
  29   11   50 1
  30   12   13 1
  31   12   51 1
  32   12   52 1
  33   13   53 1
  34   13   54 1
  35   13   55 1
  36   14   56 1
  37   14   57 1
  38   14   58 1
  39   15   16 1
  40   16   17 1
  41   16   23 2
  42   17   18 1
  43   17   22 1
  44   17   59 1
  45   18   19 1
  46   18   60 1
  47   19   20 1
  48   19   61 1
  49   19   62 1
  50   20   21 1
  51   20   63 1
  52   20   64 1
  53   21   22 1
  54   21   65 1
  55   21   66 1
  56   22   67 1
  57   22   68 1
  58   25   69 1
  59   25   70 1
  60   25   71 1
  61   26   27 1
  62   26   72 1
  63   26   73 1
  64   27   28 1
  65   27   74 1
  66   27   75 1
  67   28   29 2
  68   29   30 1
  69   29   33 1
  70   30   31 1
  71   30   38 1
  72   31   37 ar
  73   31   32 ar
  74   32   33 1
  75   32   34 ar
  76   34   35 ar
  77   34   76 1
  78   35   36 ar
  79   35   77 1
  80   36   37 ar
  81   36   78 1
  82   37   79 1
  83   38   80 1
  84   38   81 1
  85   38   82 1

#	End of record

