#	Name: ASD01917384
#	Creating user name:	WinNT
#	Creation time:	15. 06. 2019 20:09

#	Modifying user name:	WinNT
#	Modification time:	15. 06. 2019 20:09

#	Program:	/corina/corina34_cracker 3.40 0067  02.08.2006

@<TRIPOS>MOLECULE
ASD01917384
  30   30    0    0    0
SMALL
NO_CHARGES


@<TRIPOS>ATOM
   1 C1            -0.0187     1.5258     0.0104 C.3     
   2 C2             0.0021    -0.0041     0.0020 C.3     
   3 C3             0.7182    -0.4975    -1.2568 C.3     
   4 C4             2.1536     0.0321    -1.2676 C.3     
   5 C5             2.1328     1.5619    -1.2592 C.3     
   6 C6             1.4167     2.0553    -0.0004 C.3     
   7 C7            -0.7475     2.0250    -1.2105 C.2     
   8 O8            -1.2036     1.2379    -2.0057 O.2     
   9 O9            -0.8901     3.3440    -1.4144 O.3     
  10 C10            0.7387    -2.0043    -1.2651 C.2     
  11 O11            0.2324    -2.6204    -0.3573 O.2     
  12 O12            1.3193    -2.6621    -2.2809 O.3     
  13 C13           -1.6033     3.7526    -2.6114 C.3     
  14 C14            1.3016    -4.1128    -2.2227 C.3     
  15 H15           -0.5289     1.8773     0.9072 H       
  16 H16            0.5293    -0.3651     0.8851 H       
  17 H17           -1.0205    -0.3814     0.0098 H       
  18 H18            0.1910    -0.1364    -2.1398 H       
  19 H19            2.6808    -0.3290    -0.3846 H       
  20 H20            2.6638    -0.3194    -2.1644 H       
  21 H21            3.1554     1.9392    -1.2670 H       
  22 H22            1.6057     1.9230    -2.1423 H       
  23 H23            1.4019     3.1452     0.0056 H       
  24 H24            1.9439     1.6943     0.8826 H       
  25 H25           -1.0827     3.3748    -3.4913 H       
  26 H26           -2.6155     3.3490    -2.5868 H       
  27 H27           -1.6470     4.8409    -2.6545 H       
  28 H28            1.8194    -4.4467    -1.3236 H       
  29 H29            0.2696    -4.4629    -2.1989 H       
  30 H30            1.8025    -4.5178    -3.1020 H       
@<TRIPOS>BOND
   1    1    2 1
   2    1    6 1
   3    1    7 1
   4    1   15 1
   5    2    3 1
   6    2   16 1
   7    2   17 1
   8    3    4 1
   9    3   10 1
  10    3   18 1
  11    4    5 1
  12    4   19 1
  13    4   20 1
  14    5    6 1
  15    5   21 1
  16    5   22 1
  17    6   23 1
  18    6   24 1
  19    7    8 2
  20    7    9 1
  21    9   13 1
  22   10   11 2
  23   10   12 1
  24   12   14 1
  25   13   25 1
  26   13   26 1
  27   13   27 1
  28   14   28 1
  29   14   29 1
  30   14   30 1

#	End of record

