#	Name: ASD00170203
#	Creating user name:	WinNT
#	Creation time:	15. 06. 2019 18:31

#	Modifying user name:	WinNT
#	Modification time:	15. 06. 2019 18:31

#	Program:	/corina/corina34_cracker 3.40 0067  02.08.2006

@<TRIPOS>MOLECULE
ASD00170203
  33   34    0    0    0
SMALL
NO_CHARGES


@<TRIPOS>ATOM
   1 C1            -0.0161     1.3328     0.0094 C.2     
   2 C2             0.0021    -0.0041     0.0020 C.2     
   3 C3             1.3508    -0.5492    -0.0138 C.2     
   4 C4             2.3160     0.4246    -0.0178 C.2     
   5 S5             1.6154     1.9775    -0.0027 S.3     
   6 C6            -1.2211    -0.8411     0.0100 C.ar    
   7 C7            -2.2270    -0.6014     0.9449 C.ar    
   8 C8            -3.3637    -1.3842     0.9475 C.ar    
   9 C9            -3.5057    -2.4052     0.0252 C.ar    
  10 C10           -2.5107    -2.6478    -0.9051 C.ar    
  11 C11           -1.3726    -1.8679    -0.9213 C.ar    
  12 N12            3.6748     0.1793    -0.0312 N.pl3   
  13 C13            1.6364    -1.9385    -0.0232 C.2     
  14 O14            1.7837    -2.6048     1.1407 O.3     
  15 O15            1.7486    -2.5293    -1.0810 O.2     
  16 C16            2.0704    -4.0023     1.0564 C.3     
  17 C17            2.2020    -4.5818     2.4662 C.3     
  18 C18           -4.4521    -1.1263     1.9574 C.3     
  19 F19           -5.3679    -0.2085     1.4320 F       
  20 F20           -5.1099    -2.3257     2.2506 F       
  21 F21           -3.8888    -0.6054     3.1273 F       
  22 H22           -0.9132     1.9341     0.0170 H       
  23 H23           -2.1169     0.1951     1.6659 H       
  24 H24           -4.3966    -3.0156     0.0315 H       
  25 H25           -2.6271    -3.4464    -1.6228 H       
  26 H26           -0.5966    -2.0583    -1.6479 H       
  27 H27            4.0028    -0.7335    -0.0385 H       
  28 H28            4.3013     0.9198    -0.0332 H       
  29 H29            1.2612    -4.5081     0.5297 H       
  30 H30            3.0046    -4.1495     0.5144 H       
  31 H31            3.0113    -4.0760     2.9929 H       
  32 H32            1.2679    -4.4346     3.0083 H       
  33 H33            2.4207    -5.6477     2.4020 H       
@<TRIPOS>BOND
   1    1    2 2
   2    1    5 1
   3    1   22 1
   4    2    3 1
   5    2    6 1
   6    3    4 2
   7    3   13 1
   8    4    5 1
   9    4   12 1
  10    6    7 ar
  11    6   11 ar
  12    7    8 ar
  13    7   23 1
  14    8    9 ar
  15    8   18 1
  16    9   10 ar
  17    9   24 1
  18   10   11 ar
  19   10   25 1
  20   11   26 1
  21   12   27 1
  22   12   28 1
  23   13   14 1
  24   13   15 2
  25   14   16 1
  26   16   17 1
  27   16   29 1
  28   16   30 1
  29   17   31 1
  30   17   32 1
  31   17   33 1
  32   18   19 1
  33   18   20 1
  34   18   21 1

#	End of record

