#	Name: ASD05380135
#	Creating user name:	WinNT
#	Creation time:	15. 06. 2019 20:59

#	Modifying user name:	WinNT
#	Modification time:	15. 06. 2019 20:59

#	Program:	/corina/corina34_cracker 3.40 0067  02.08.2006

@<TRIPOS>MOLECULE
ASD05380135
  51   55    0    0    0
SMALL
NO_CHARGES


@<TRIPOS>ATOM
   1 C1            -0.0171     1.4090     0.0098 C.ar    
   2 C2             0.0021    -0.0041     0.0020 C.ar    
   3 C3             1.1804     2.1236     0.0022 C.ar    
   4 C4             2.3788     1.4402    -0.0129 C.ar    
   5 C5             2.3996     0.0525    -0.0211 C.ar    
   6 C6             1.2279    -0.6715    -0.0133 C.ar    
   7 N7            -1.1750    -0.6781     0.0101 N.2     
   8 C8            -2.3151    -0.0567     0.0248 C.2     
   9 N9            -2.4274     1.2988     0.0332 N.am    
  10 C10           -1.3233     2.0815     0.0320 C.2     
  11 C11           -3.6985     1.8906     0.0485 C.ar    
  12 C12           -4.3187     2.1782     1.2588 C.ar    
  13 C13           -6.2090     3.0603     0.0788 C.ar    
  14 C14           -3.5779    -0.8790     0.0325 C.3     
  15 N15           -3.3775    -2.0891    -0.7686 N.pl3   
  16 C16           -4.4632    -2.7262    -1.3430 C.ar    
  17 N17           -5.6933    -2.2530    -1.1771 N.ar    
  18 O18           -1.4091     3.2959     0.0394 O.2     
  19 C19           -4.2875    -3.8847    -2.1192 C.ar    
  20 C20           -5.4248    -4.4902    -2.6788 C.ar    
  21 N21           -6.6200    -3.9521    -2.4577 N.ar    
  22 C22           -6.7401    -2.8571    -1.7246 C.ar    
  23 N23           -3.2152    -4.6244    -2.4951 N.2     
  24 C24           -3.6129    -5.6203    -3.2315 C.2     
  25 N25           -4.9693    -5.5815    -3.3743 N.pl3   
  26 C26           -5.5727     2.7625     1.2697 C.ar    
  27 C27           -5.5932     2.7806    -1.1271 C.ar    
  28 C28           -3.9226    -1.2709     1.4707 C.3     
  29 N29           -8.0021    -2.3236    -1.5211 N.pl3   
  30 C30           -4.3393     2.1964    -1.1465 C.ar    
  31 F31           -3.7382     1.9238    -2.3253 F       
  32 C32           -5.2685    -1.9982     1.4926 C.3     
  33 F33           -3.6980     1.8871     2.4229 F       
  34 Cl34           1.1632     3.8594     0.0111 Cl      
  35 H35            3.3085     1.9897    -0.0189 H       
  36 H36            3.3467    -0.4664    -0.0337 H       
  37 H37            1.2575    -1.7511    -0.0194 H       
  38 H38           -7.1880     3.5161     0.0906 H       
  39 H39           -4.3948    -0.2944    -0.3905 H       
  40 H40           -2.4837    -2.4437    -0.8964 H       
  41 H41           -2.9651    -6.3673    -3.6659 H       
  42 H42           -5.5120    -6.2104    -3.8751 H       
  43 H43           -6.0554     2.9859     2.2096 H       
  44 H44           -6.0934     3.0148    -2.0552 H       
  45 H45           -3.1476    -1.9289     1.8637 H       
  46 H46           -3.9844    -0.3738     2.0868 H       
  47 H47           -8.1091    -1.5216    -0.9860 H       
  48 H48           -8.7789    -2.7519    -1.9136 H       
  49 H49           -6.0435    -1.3402     1.0996 H       
  50 H50           -5.2067    -2.8953     0.8765 H       
  51 H51           -5.5141    -2.2773     2.5172 H       
@<TRIPOS>BOND
   1    1    2 ar
   2    1    3 ar
   3    1   10 1
   4    2    7 1
   5    2    6 ar
   6    3    4 ar
   7    3   34 1
   8    4    5 ar
   9    4   35 1
  10    5    6 ar
  11    5   36 1
  12    6   37 1
  13    7    8 2
  14    8    9 1
  15    8   14 1
  16    9   10 am
  17    9   11 1
  18   10   18 2
  19   11   12 ar
  20   11   30 ar
  21   12   33 1
  22   12   26 ar
  23   13   26 ar
  24   13   27 ar
  25   13   38 1
  26   14   15 1
  27   14   28 1
  28   14   39 1
  29   15   16 1
  30   15   40 1
  31   16   17 ar
  32   16   19 ar
  33   17   22 ar
  34   19   20 ar
  35   19   23 1
  36   20   21 ar
  37   20   25 1
  38   21   22 ar
  39   22   29 1
  40   23   24 2
  41   24   25 1
  42   24   41 1
  43   25   42 1
  44   26   43 1
  45   27   30 ar
  46   27   44 1
  47   28   32 1
  48   28   45 1
  49   28   46 1
  50   29   47 1
  51   29   48 1
  52   30   31 1
  53   32   49 1
  54   32   50 1
  55   32   51 1

#	End of record

