#	Name: ASD01941046
#	Creating user name:	WinNT
#	Creation time:	15. 06. 2019 20:13

#	Modifying user name:	WinNT
#	Modification time:	15. 06. 2019 20:13

#	Program:	/corina/corina34_cracker 3.40 0067  02.08.2006

@<TRIPOS>MOLECULE
ASD01941046
  46   48    0    0    0
SMALL
NO_CHARGES


@<TRIPOS>ATOM
   1 N1            -0.0117     1.4160    -0.4073 N.am    
   2 C2             0.0291     0.0630    -0.4143 C.2     
   3 N3            -1.0419    -0.6720    -0.2862 N.2     
   4 C4            -2.2527    -0.1170    -0.1392 C.2     
   5 C5            -2.3641     1.2806    -0.1236 C.2     
   6 C6            -1.1903     2.0629    -0.2589 C.2     
   7 N7            -3.3740    -0.8869    -0.0061 N.am    
   8 C8            -4.5906    -0.3361     0.1401 C.2     
   9 C9            -4.7764     1.0488     0.1642 C.2     
  10 C10           -3.6826     1.8906     0.0365 C.2     
  11 C11           -3.2464    -2.3463    -0.0238 C.3     
  12 O12           -5.5616    -1.0663     0.2549 O.2     
  13 O13           -1.2421     3.2801    -0.2501 O.2     
  14 N14           -3.8342     3.2624     0.0568 N.pl3   
  15 C15           -3.2903     4.0109     1.1065 C.ar    
  16 C16           -2.7115     3.3683     2.1920 C.ar    
  17 C17           -2.1752     4.1098     3.2273 C.ar    
  18 C18           -2.2146     5.4915     3.1839 C.ar    
  19 C19           -2.7910     6.1368     2.1040 C.ar    
  20 C20           -3.3234     5.4010     1.0617 C.ar    
  21 F21           -3.8863     6.0308     0.0073 F       
  22 I22           -1.4004     6.6102     4.7570 I       
  23 C23            1.2275     2.1833    -0.5552 C.3     
  24 C24            1.4866     2.4526    -2.0389 C.3     
  25 C25            2.8415     3.1442    -2.2027 C.3     
  26 O26            3.1364     3.2909    -3.5932 O.3     
  27 O27            0.4557     3.2957    -2.5571 O.3     
  28 C28           -6.1594     1.6243     0.3292 C.3     
  29 H29            0.9844    -0.4271    -0.5307 H       
  30 H30           -3.0925    -2.7099     0.9922 H       
  31 H31           -4.1562    -2.7856    -0.4330 H       
  32 H32           -2.3957    -2.6292    -0.6437 H       
  33 H33           -4.3178     3.7075    -0.6566 H       
  34 H34           -2.6807     2.2893     2.2277 H       
  35 H35           -1.7249     3.6096     4.0719 H       
  36 H36           -2.8208     7.2159     2.0733 H       
  37 H37            1.1335     3.1310    -0.0249 H       
  38 H38            2.0589     1.6147    -0.1386 H       
  39 H39            1.4922     1.5087    -2.5839 H       
  40 H40            2.8068     4.1272    -1.7329 H       
  41 H41            3.6165     2.5421    -1.7284 H       
  42 H42            3.9829     3.7228    -3.7723 H       
  43 H43            0.3924     4.1549    -2.1179 H       
  44 H44           -6.8918     0.8171     0.3246 H       
  45 H45           -6.2183     2.1629     1.2751 H       
  46 H46           -6.3683     2.3093    -0.4925 H       
@<TRIPOS>BOND
   1    1    2 1
   2    1   23 1
   3    1    6 am
   4    2    3 2
   5    2   29 1
   6    3    4 1
   7    4    5 2
   8    4    7 1
   9    5    6 1
  10    5   10 1
  11    6   13 2
  12    7    8 am
  13    7   11 1
  14    8    9 1
  15    8   12 2
  16    9   10 2
  17    9   28 1
  18   10   14 1
  19   11   30 1
  20   11   31 1
  21   11   32 1
  22   14   15 1
  23   14   33 1
  24   15   16 ar
  25   15   20 ar
  26   16   17 ar
  27   16   34 1
  28   17   18 ar
  29   17   35 1
  30   18   19 ar
  31   18   22 1
  32   19   20 ar
  33   19   36 1
  34   20   21 1
  35   23   24 1
  36   23   37 1
  37   23   38 1
  38   24   25 1
  39   24   27 1
  40   24   39 1
  41   25   26 1
  42   25   40 1
  43   25   41 1
  44   26   42 1
  45   27   43 1
  46   28   44 1
  47   28   45 1
  48   28   46 1

#	End of record

