#	Name: ASD01230089
#	Creating user name:	WinNT
#	Creation time:	15. 06. 2019 19:11

#	Modifying user name:	WinNT
#	Modification time:	15. 06. 2019 19:11

#	Program:	/corina/corina34_cracker 3.40 0067  02.08.2006

@<TRIPOS>MOLECULE
ASD01230089
  46   50    0    0    0
SMALL
NO_CHARGES


@<TRIPOS>ATOM
   1 C1            -0.0168     1.3904     0.0097 C.ar    
   2 C2             0.0021    -0.0041     0.0020 C.ar    
   3 C3            -1.2688    -0.7651     0.0096 C.2     
   4 N4            -1.2487    -2.0881     0.0023 N.2     
   5 C5            -2.3831    -2.7870     0.0094 C.2     
   6 N6            -3.5970    -2.1556     0.0244 N.pl3   
   7 C7            -3.6544    -0.7907     0.0327 C.2     
   8 C8            -2.5024    -0.0799     0.0305 C.2     
   9 C9             1.2226    -0.6793    -0.0133 C.ar    
  10 C10            2.4029     0.0350    -0.0207 C.ar    
  11 C11            2.3776     1.4184    -0.0130 C.ar    
  12 C12            1.1705     2.0937     0.0021 C.ar    
  13 C13           -2.6460    -4.1696     0.0045 C.2     
  14 C14           -4.0421    -4.3218     0.0171 C.2     
  15 N15           -4.5952    -3.1364     0.0287 N.2     
  16 C16           -1.6492    -5.2488    -0.0113 C.2     
  17 O17           -0.3131    -5.1055    -0.0234 O.3     
  18 N18            0.2188    -6.1952    -0.0341 N.2     
  19 C19           -0.6833    -7.1441    -0.0303 C.2     
  20 N20           -1.8942    -6.5500    -0.0106 N.2     
  21 C21           -0.4217    -8.6043    -0.0402 C.ar    
  22 C22           -1.4783    -9.5102    -0.0353 C.ar    
  23 C23            0.8912    -9.0898    -0.0606 C.ar    
  24 C24            1.0858   -10.4562    -0.0692 C.ar    
  25 C25           -0.0215   -11.3008    -0.0574 C.ar    
  26 N26           -1.2512   -10.8083    -0.0436 N.ar    
  27 N27            0.1656   -12.6761    -0.0664 N.pl3   
  28 C28            3.7223    -0.6929    -0.0367 C.3     
  29 F29            4.1183    -0.9115    -1.3606 F       
  30 F30            4.6885     0.0787     0.6177 F       
  31 F31            3.5850    -1.9217     0.6179 F       
  32 C32           -4.9855    -0.0843     0.0492 C.3     
  33 F33           -4.7790     1.2993     0.0551 F       
  34 F34           -5.7173    -0.4418    -1.0882 F       
  35 F35           -5.6957    -0.4547     1.1962 F       
  36 H36           -0.9587     1.9187     0.0170 H       
  37 H37           -2.5272     0.9998     0.0372 H       
  38 H38            1.2436    -1.7591    -0.0189 H       
  39 H39            3.3041     1.9733    -0.0189 H       
  40 H40            1.1571     3.1736     0.0084 H       
  41 H41           -4.5719    -5.2629     0.0171 H       
  42 H42           -2.4948    -9.1456    -0.0241 H       
  43 H43            1.7315    -8.4115    -0.0697 H       
  44 H44            2.0851   -10.8656    -0.0852 H       
  45 H45            1.0633   -13.0433    -0.0808 H       
  46 H46           -0.6013   -13.2700    -0.0583 H       
@<TRIPOS>BOND
   1    1    2 ar
   2    1   12 ar
   3    1   36 1
   4    2    3 1
   5    2    9 ar
   6    3    4 2
   7    3    8 1
   8    4    5 1
   9    5    6 1
  10    5   13 2
  11    6    7 1
  12    6   15 1
  13    7   32 1
  14    7    8 2
  15    8   37 1
  16    9   10 ar
  17    9   38 1
  18   10   28 1
  19   10   11 ar
  20   11   12 ar
  21   11   39 1
  22   12   40 1
  23   13   14 1
  24   13   16 1
  25   14   15 2
  26   14   41 1
  27   16   17 1
  28   16   20 2
  29   17   18 1
  30   18   19 2
  31   19   20 1
  32   19   21 1
  33   21   22 ar
  34   21   23 ar
  35   22   26 ar
  36   22   42 1
  37   23   24 ar
  38   23   43 1
  39   24   25 ar
  40   24   44 1
  41   25   26 ar
  42   25   27 1
  43   27   45 1
  44   27   46 1
  45   28   29 1
  46   28   30 1
  47   28   31 1
  48   32   33 1
  49   32   34 1
  50   32   35 1

#	End of record

