#	Name: ASD06020070
#	Creating user name:	WinNT
#	Creation time:	15. 06. 2019 21:04

#	Modifying user name:	WinNT
#	Modification time:	15. 06. 2019 21:04

#	Program:	/corina/corina34_cracker 3.40 0067  02.08.2006

@<TRIPOS>MOLECULE
ASD06020070
  37   40    0    0    0
SMALL
NO_CHARGES


@<TRIPOS>ATOM
   1 C1             0.0192     1.3265     0.0361 C.3     
   2 O2            -0.8925     2.4263     0.0713 O.3     
   3 C3             1.4334     1.8467     0.0183 C.ar    
   4 C4             1.6670     3.2089     0.0365 C.ar    
   5 N5             2.4477     0.9985    -0.0092 N.ar    
   6 N6             2.9061     3.6695     0.0206 N.ar    
   7 C7             3.9266     2.8221    -0.0125 C.ar    
   8 C8             3.6874     1.4501    -0.0248 C.ar    
   9 N9             5.2321     3.3027    -0.0293 N.pl3   
  10 C10            5.4688     4.6704    -0.1292 C.ar    
  11 C11            6.7760     5.1591    -0.0331 C.ar    
  12 C12            7.0075     6.5356    -0.1349 C.ar    
  13 C13            5.8757     7.3670    -0.3333 C.ar    
  14 C14            4.6394     6.8083    -0.4149 C.ar    
  15 N15            4.4579     5.5004    -0.3200 N.ar    
  16 S16            8.3224     4.3536     0.2075 S.3     
  17 C17            9.1497     5.9049     0.1537 C.2     
  18 N18            8.2965     6.8601    -0.0261 N.2     
  19 C19           10.6095     6.0902     0.2937 C.ar    
  20 C20           11.1630     7.3711     0.2354 C.ar    
  21 C21           12.5277     7.5366     0.3670 C.ar    
  22 C22           13.3460     6.4375     0.5562 C.ar    
  23 C23           12.8049     5.1658     0.6146 C.ar    
  24 C24           11.4412     4.9857     0.4908 C.ar    
  25 Cl25          10.7633     3.3896     0.5727 Cl      
  26 Cl26          10.1380     8.7519    -0.0026 Cl      
  27 H27           -0.1280     0.7042     0.9188 H       
  28 H28           -0.1612     0.7336    -0.8606 H       
  29 H29           -1.8235     2.1652     0.0843 H       
  30 H30            0.8359     3.8981     0.0634 H       
  31 H31            4.5153     0.7569    -0.0471 H       
  32 H32            5.9773     2.6844     0.0287 H       
  33 H33            5.9954     8.4370    -0.4185 H       
  34 H34            3.7825     7.4481    -0.5657 H       
  35 H35           12.9572     8.5265     0.3217 H       
  36 H36           14.4126     6.5728     0.6585 H       
  37 H37           13.4498     4.3121     0.7618 H       
@<TRIPOS>BOND
   1    1    2 1
   2    1    3 1
   3    1   27 1
   4    1   28 1
   5    2   29 1
   6    3    4 ar
   7    3    5 ar
   8    4    6 ar
   9    4   30 1
  10    5    8 ar
  11    6    7 ar
  12    7    8 ar
  13    7    9 1
  14    8   31 1
  15    9   10 1
  16    9   32 1
  17   10   11 ar
  18   10   15 ar
  19   11   12 ar
  20   11   16 1
  21   12   13 ar
  22   12   18 1
  23   13   14 ar
  24   13   33 1
  25   14   15 ar
  26   14   34 1
  27   16   17 1
  28   17   18 2
  29   17   19 1
  30   19   20 ar
  31   19   24 ar
  32   20   21 ar
  33   20   26 1
  34   21   22 ar
  35   21   35 1
  36   22   23 ar
  37   22   36 1
  38   23   24 ar
  39   23   37 1
  40   24   25 1

#	End of record

