#	Name: ASD03090159
#	Creating user name:	WinNT
#	Creation time:	15. 06. 2019 20:28

#	Modifying user name:	WinNT
#	Modification time:	15. 06. 2019 20:28

#	Program:	/corina/corina34_cracker 3.40 0067  02.08.2006

@<TRIPOS>MOLECULE
ASD03090159
  46   49    0    0    0
SMALL
NO_CHARGES


@<TRIPOS>ATOM
   1 C1            -0.3198     1.0347    -0.7332 C.ar    
   2 C2            -0.1783    -0.1064     0.0452 C.ar    
   3 C3             1.0555    -0.7077     0.1789 C.ar    
   4 C4             2.1672    -0.1692    -0.4696 C.ar    
   5 C5             2.0263     0.9782    -1.2512 C.ar    
   6 C6             0.7862     1.5783    -1.3804 C.ar    
   7 C7             3.4914    -0.8125    -0.3288 C.2     
   8 N8             7.0036    -0.8653    -0.4757 N.pl3   
   9 C9             7.4346     0.3566    -0.9989 C.ar    
  10 C10            6.6541     1.0289    -1.9307 C.ar    
  11 C11            7.0829     2.2368    -2.4455 C.ar    
  12 C12            8.2878     2.7765    -2.0346 C.ar    
  13 C13            9.0676     2.1095    -1.1073 C.ar    
  14 C14            8.6421     0.9046    -0.5840 C.ar    
  15 N15            4.6583    -0.2447    -0.5619 N.2     
  16 C16            5.6384    -1.1206    -0.3318 C.2     
  17 N17            5.1127    -2.2608     0.0516 N.2     
  18 N18            3.7196    -2.0850     0.0673 N.pl3   
  19 C19            2.7127    -3.0850     0.4312 C.3     
  20 C20            2.4647    -3.0306     1.9167 C.2     
  21 N21            1.5708    -3.8662     2.4817 N.am    
  22 O22            3.0695    -2.2349     2.6037 O.2     
  23 O23            0.6659     2.7015    -2.1402 O.3     
  24 C24           -0.6573     3.0624    -2.5505 C.3     
  25 C25           -1.5837     2.9577    -1.3315 C.3     
  26 O26           -1.5483     1.6066    -0.8577 O.3     
  27 C27           10.3806     2.7012    -0.6633 C.3     
  28 F28           10.5909     3.9170    -1.3225 F       
  29 F29           10.3504     2.9190     0.7184 F       
  30 F30           11.4193     1.8168    -0.9734 F       
  31 H31           -1.0378    -0.5245     0.5481 H       
  32 H32            1.1611    -1.5948     0.7858 H       
  33 H33            2.8847     1.3978    -1.7546 H       
  34 H34            7.6529    -1.5363    -0.2125 H       
  35 H35            5.7133     0.6075    -2.2526 H       
  36 H36            6.4766     2.7600    -3.1700 H       
  37 H37            8.6209     3.7209    -2.4390 H       
  38 H38            9.2515     0.3843     0.1400 H       
  39 H39            1.7842    -2.8757    -0.1000 H       
  40 H40            3.0714    -4.0776     0.1589 H       
  41 H41            1.0871    -4.5026     1.9322 H       
  42 H42            1.4112    -3.8312     3.4378 H       
  43 H43           -0.6593     4.0854    -2.9268 H       
  44 H44           -0.9986     2.3824    -3.3309 H       
  45 H45           -1.2385     3.6327    -0.5483 H       
  46 H46           -2.6019     3.2188    -1.6200 H       
@<TRIPOS>BOND
   1    1    2 ar
   2    1    6 ar
   3    1   26 1
   4    2    3 ar
   5    2   31 1
   6    3    4 ar
   7    3   32 1
   8    4    5 ar
   9    4    7 1
  10    5    6 ar
  11    5   33 1
  12    6   23 1
  13    7   15 2
  14    7   18 1
  15    8    9 1
  16    8   16 1
  17    8   34 1
  18    9   10 ar
  19    9   14 ar
  20   10   11 ar
  21   10   35 1
  22   11   12 ar
  23   11   36 1
  24   12   13 ar
  25   12   37 1
  26   13   14 ar
  27   13   27 1
  28   14   38 1
  29   15   16 1
  30   16   17 2
  31   17   18 1
  32   18   19 1
  33   19   20 1
  34   19   39 1
  35   19   40 1
  36   20   21 am
  37   20   22 2
  38   21   41 1
  39   21   42 1
  40   23   24 1
  41   24   25 1
  42   24   43 1
  43   24   44 1
  44   25   26 1
  45   25   45 1
  46   25   46 1
  47   27   28 1
  48   27   29 1
  49   27   30 1

#	End of record

