#	Name: ASD04910091
#	Creating user name:	WinNT
#	Creation time:	15. 06. 2019 20:55

#	Modifying user name:	WinNT
#	Modification time:	15. 06. 2019 20:55

#	Program:	/corina/corina34_cracker 3.40 0067  02.08.2006

@<TRIPOS>MOLECULE
ASD04910091
  44   45    0    0    0
SMALL
NO_CHARGES


@<TRIPOS>ATOM
   1 C1             3.1539    -2.9354     3.8986 C.2     
   2 C2             2.4105    -3.3377     2.6902 C.ar    
   3 C3             2.8105    -2.8729     1.4340 C.ar    
   4 C4             2.1136    -3.2508     0.3084 C.ar    
   5 C5             1.0136    -4.0935     0.4198 C.ar    
   6 C6             0.6122    -4.5576     1.6671 C.ar    
   7 C7             1.3072    -4.1895     2.7972 C.ar    
   8 O8             4.1156    -2.1989     3.8032 O.2     
   9 O9             2.7633    -3.3801     5.1091 O.3     
  10 O10            0.3295    -4.4636    -0.6922 O.3     
  11 C11           -0.8608    -5.2297    -0.4965 C.3     
  12 C12           -1.7633    -5.0924    -1.7244 C.3     
  13 C13           -2.2640    -3.6505    -1.8306 C.3     
  14 C14           -1.0801    -2.7175    -2.0931 C.3     
  15 C15           -3.2644    -3.5417    -2.9831 C.3     
  16 C16           -0.4986    -6.6791    -0.2989 C.ar    
  17 C17           -1.2377    -7.4643     0.5660 C.ar    
  18 C18           -0.9061    -8.7939     0.7473 C.ar    
  19 C19            0.1654    -9.3387     0.0629 C.ar    
  20 C20            0.9047    -8.5526    -0.8025 C.ar    
  21 C21            0.5692    -7.2245    -0.9870 C.ar    
  22 Br22           0.6200   -11.1574     0.3109 Br      
  23 C23            3.5418    -2.9436     6.2544 C.3     
  24 H24            3.6648    -2.2179     1.3466 H       
  25 H25            2.4218    -2.8919    -0.6625 H       
  26 H26           -0.2432    -5.2118     1.7494 H       
  27 H27            0.9978    -4.5547     3.7653 H       
  28 H28           -1.3879    -4.8635     0.3845 H       
  29 H29           -1.1983    -5.3478    -2.6209 H       
  30 H30           -2.6144    -5.7663    -1.6270 H       
  31 H31           -2.7514    -3.3656    -0.8982 H       
  32 H32           -1.4496    -1.7219    -2.3384 H       
  33 H33           -0.4553    -2.6638    -1.2016 H       
  34 H34           -0.4920    -3.1023    -2.9263 H       
  35 H35           -4.1078    -4.2063    -2.7961 H       
  36 H36           -3.6211    -2.5145    -3.0588 H       
  37 H37           -2.7770    -3.8266    -3.9155 H       
  38 H38           -2.0741    -7.0388     1.1006 H       
  39 H39           -1.4834    -9.4072     1.4233 H       
  40 H40            1.7417    -8.9775    -1.3367 H       
  41 H41            1.1438    -6.6117    -1.6658 H       
  42 H42            4.5739    -3.2748     6.1397 H       
  43 H43            3.5144    -1.8559     6.3192 H       
  44 H44            3.1216    -3.3724     7.1642 H       
@<TRIPOS>BOND
   1    1    2 1
   2    1    8 2
   3    1    9 1
   4    2    3 ar
   5    2    7 ar
   6    3    4 ar
   7    3   24 1
   8    4    5 ar
   9    4   25 1
  10    5    6 ar
  11    5   10 1
  12    6    7 ar
  13    6   26 1
  14    7   27 1
  15    9   23 1
  16   10   11 1
  17   11   12 1
  18   11   16 1
  19   11   28 1
  20   12   13 1
  21   12   29 1
  22   12   30 1
  23   13   14 1
  24   13   15 1
  25   13   31 1
  26   14   32 1
  27   14   33 1
  28   14   34 1
  29   15   35 1
  30   15   36 1
  31   15   37 1
  32   16   17 ar
  33   16   21 ar
  34   17   18 ar
  35   17   38 1
  36   18   19 ar
  37   18   39 1
  38   19   20 ar
  39   19   22 1
  40   20   21 ar
  41   20   40 1
  42   21   41 1
  43   23   42 1
  44   23   43 1
  45   23   44 1

#	End of record

