#	Name: ASD04590840
#	Creating user name:	WinNT
#	Creation time:	15. 06. 2019 20:51

#	Modifying user name:	WinNT
#	Modification time:	15. 06. 2019 20:51

#	Program:	/corina/corina34_cracker 3.40 0067  02.08.2006

@<TRIPOS>MOLECULE
ASD04590840
  72   78    0    0    0
SMALL
NO_CHARGES


@<TRIPOS>ATOM
   1 N1            -2.3782    -2.7059     0.0203 N.ar    
   2 C2            -1.2116    -2.0738     0.0040 C.ar    
   3 N3            -0.0573    -2.7201    -0.0183 N.ar    
   4 C4            -0.0259    -4.0495    -0.0255 C.ar    
   5 C5            -1.2487    -4.7505    -0.0087 C.ar    
   6 C6            -2.4370    -4.0274     0.0147 C.ar    
   7 N7             0.9975    -4.9639    -0.0470 N.pl3   
   8 C8             0.4931    -6.2537    -0.0451 C.ar    
   9 C9            -0.9095    -6.1793    -0.0214 C.ar    
  10 C10            1.0887    -7.5119    -0.0605 C.ar    
  11 N11            0.3454    -8.6018    -0.0529 N.ar    
  12 C12           -0.9757    -8.5582    -0.0308 C.ar    
  13 C13           -1.6448    -7.3654    -0.0151 C.ar    
  14 N14           -1.2019    -0.6887     0.0103 N.pl3   
  15 C15           -2.4017     0.0177    -0.0793 C.ar    
  16 N16           -3.5393    -0.6296    -0.2706 N.ar    
  17 N17           -4.6658    -0.0209    -0.3587 N.ar    
  18 C18           -4.7649     1.2951    -0.2640 C.ar    
  19 C19           -3.6185     2.0653    -0.0617 C.ar    
  20 C20           -2.4049     1.4083     0.0385 C.ar    
  21 N21           -6.0105     1.9106    -0.3666 N.3     
  22 C22            2.4222    -4.6235    -0.0698 C.3     
  23 C23            2.7455    -3.7918    -1.3234 C.3     
  24 C24            3.2829    -2.4344    -0.8251 C.3     
  25 C25            3.8159    -2.7359     0.5976 C.3     
  26 C26            2.7745    -3.7424     1.1465 C.3     
  27 C27           -7.0846     0.9066    -0.5795 C.3     
  28 C28           -8.2500     1.7088    -1.1972 C.3     
  29 C29           -7.5879     2.9401    -1.8492 C.3     
  30 C30           -6.0781     2.7783    -1.5705 C.3     
  31 C31           -8.2783     1.8858    -2.7167 C.3     
  32 N32           -7.4239     1.0035    -3.5152 N.am    
  33 C33           -7.7408     0.7388    -4.7982 C.2     
  34 O34           -8.7352     1.2320    -5.2925 O.2     
  35 O35           -6.9555    -0.0721    -5.5321 O.3     
  36 C36           -7.3580    -0.3126    -6.9063 C.3     
  37 C37           -7.4007     1.0153    -7.6651 C.3     
  38 C38           -6.3514    -1.2504    -7.5758 C.3     
  39 C39           -8.7459    -0.9562    -6.9260 C.3     
  40 F40            2.4353    -7.6174    -0.0838 F       
  41 H41           -3.3899    -4.5355     0.0283 H       
  42 H42           -1.5367    -9.4810    -0.0259 H       
  43 H43           -2.7244    -7.3419     0.0028 H       
  44 H44           -0.3610    -0.2099     0.0770 H       
  45 H45           -3.6775     3.1407     0.0180 H       
  46 H46           -1.4872     1.9556     0.1955 H       
  47 H47            3.0232    -5.5328    -0.0597 H       
  48 H48            3.5040    -4.2971    -1.9212 H       
  49 H49            1.8423    -3.6415    -1.9148 H       
  50 H50            4.0900    -2.0842    -1.4686 H       
  51 H51            2.4801    -1.6982    -0.7837 H       
  52 H52            4.8054    -3.1908     0.5510 H       
  53 H53            3.8342    -1.8299     1.2033 H       
  54 H54            1.8896    -3.2175     1.5064 H       
  55 H55            3.2105    -4.3468     1.9419 H       
  56 H56           -6.7492     0.1315    -1.2686 H       
  57 H57           -7.3875     0.4666     0.3706 H       
  58 H58           -9.1697     1.7908    -0.6179 H       
  59 H59           -8.0146     3.9387    -1.7552 H       
  60 H60           -5.6231     3.7476    -1.3666 H       
  61 H61           -5.5852     2.2961    -2.4148 H       
  62 H62           -9.2304     2.1560    -3.1733 H       
  63 H63           -6.6300     0.6098    -3.1206 H       
  64 H64           -6.4120     1.4738    -7.6510 H       
  65 H65           -7.7028     0.8347    -8.6967 H       
  66 H66           -8.1179     1.6834    -7.1881 H       
  67 H67           -6.3209    -2.1964    -7.0353 H       
  68 H68           -6.6535    -1.4309    -8.6074 H       
  69 H69           -5.3626    -0.7918    -7.5617 H       
  70 H70           -9.4630    -0.2881    -6.4491 H       
  71 H71           -9.0480    -1.1368    -7.9577 H       
  72 H72           -8.7154    -1.9022    -6.3855 H       
@<TRIPOS>BOND
   1    1    2 ar
   2    1    6 ar
   3    2    3 ar
   4    2   14 1
   5    3    4 ar
   6    4    5 ar
   7    4    7 1
   8    5    6 ar
   9    5    9 1
  10    6   41 1
  11    7    8 1
  12    7   22 1
  13    8    9 ar
  14    8   10 ar
  15    9   13 ar
  16   10   11 ar
  17   10   40 1
  18   11   12 ar
  19   12   13 ar
  20   12   42 1
  21   13   43 1
  22   14   15 1
  23   14   44 1
  24   15   16 ar
  25   15   20 ar
  26   16   17 ar
  27   17   18 ar
  28   18   19 ar
  29   18   21 1
  30   19   20 ar
  31   19   45 1
  32   20   46 1
  33   21   27 1
  34   21   30 1
  35   22   23 1
  36   22   26 1
  37   22   47 1
  38   23   24 1
  39   23   48 1
  40   23   49 1
  41   24   25 1
  42   24   50 1
  43   24   51 1
  44   25   26 1
  45   25   52 1
  46   25   53 1
  47   26   54 1
  48   26   55 1
  49   27   28 1
  50   27   56 1
  51   27   57 1
  52   28   29 1
  53   28   31 1
  54   28   58 1
  55   29   30 1
  56   29   31 1
  57   29   59 1
  58   30   60 1
  59   30   61 1
  60   31   32 1
  61   31   62 1
  62   32   33 am
  63   32   63 1
  64   33   34 2
  65   33   35 1
  66   35   36 1
  67   36   37 1
  68   36   38 1
  69   36   39 1
  70   37   64 1
  71   37   65 1
  72   37   66 1
  73   38   67 1
  74   38   68 1
  75   38   69 1
  76   39   70 1
  77   39   71 1
  78   39   72 1

#	End of record

