#	Name: ASD00069199
#	Creating user name:	WinNT
#	Creation time:	15. 06. 2019 18:29

#	Modifying user name:	WinNT
#	Modification time:	15. 06. 2019 18:29

#	Program:	/corina/corina34_cracker 3.40 0067  02.08.2006

@<TRIPOS>MOLECULE
ASD00069199
  77   82    0    0    0
SMALL
NO_CHARGES


@<TRIPOS>ATOM
   1 C1            -0.1230     1.2315    -0.5853 C.2     
   2 N2            -0.0113     0.0246    -0.0764 N.2     
   3 C3             1.2325    -0.4241    -0.2868 C.2     
   4 C4             1.9248     0.5467    -0.9560 C.2     
   5 N5             1.0759     1.5818    -1.1421 N.pl3   
   6 C6            -1.3388     2.0651    -0.5647 C.2     
   7 O7            -1.3260     3.1716    -1.0694 O.2     
   8 N8            -2.4644     1.6010     0.0134 N.am    
   9 C9             1.4969    -3.8744     1.1876 C.ar    
  10 C10            0.9607    -2.6589     0.8157 C.ar    
  11 C11            1.7662    -1.7428     0.1332 C.ar    
  12 C12            3.0885    -2.1035    -0.1430 C.ar    
  13 C13            3.5440    -3.3396     0.2651 C.ar    
  14 N14            2.7504    -4.1758     0.9073 N.ar    
  15 C15            0.6412    -4.8687     1.9293 C.3     
  16 C16           -3.5833     2.4342     0.1361 C.ar    
  17 C17           -4.8672     1.8986     0.0419 C.ar    
  18 C18           -5.9722     2.7303     0.1650 C.ar    
  19 C19           -5.7964     4.0863     0.3804 C.ar    
  20 C20           -4.5224     4.6158     0.4730 C.ar    
  21 C21           -3.4173     3.7936     0.3573 C.ar    
  22 N22           -5.0416     0.5261    -0.1766 N.3     
  23 C23           -5.7959    -0.0901     0.9225 C.3     
  24 C24           -5.8415    -1.6068     0.7242 C.3     
  25 C25           -6.5094    -1.9214    -0.6173 C.3     
  26 C26           -5.7326    -1.2284    -1.7402 C.3     
  27 C27           -5.6901     0.2774    -1.4704 C.3     
  28 C28           -6.5035    -3.4110    -0.8458 C.2     
  29 O29           -5.5718    -4.0810    -0.4533 O.2     
  30 N30           -7.5335    -3.9986    -1.4863 N.am    
  31 C31           -7.6020    -5.4611    -1.6097 C.3     
  32 C32           -7.7739    -5.8236    -3.0881 C.3     
  33 C33           -8.9918    -5.0876    -3.6514 C.3     
  34 C34           -8.7702    -3.5769    -3.5471 C.3     
  35 C35           -8.6124    -3.1892    -2.0690 C.3     
  36 C36           -9.1842    -5.4682    -5.0968 C.ar    
  37 C37          -10.2313    -4.9206    -5.8139 C.ar    
  38 C38          -10.3992    -5.2770    -7.1430 C.ar    
  39 C39           -9.5035    -6.1750    -7.7037 C.ar    
  40 C40           -8.4806    -6.6811    -6.9246 C.ar    
  41 N41           -8.3484    -6.3156    -5.6643 N.ar    
  42 O42          -10.1548    -5.4508    -2.9048 O.3     
  43 F43           -7.2184     2.2164     0.0741 F       
  44 H44            2.9553     0.4961    -1.2752 H       
  45 H45            1.2793     2.4185    -1.5886 H       
  46 H46           -2.4994     0.6899     0.3444 H       
  47 H47           -0.0664    -2.4189     1.0480 H       
  48 H48            3.7434    -1.4243    -0.6686 H       
  49 H49            4.5638    -3.6273     0.0559 H       
  50 H50            0.1327    -5.5153     1.2142 H       
  51 H51            1.2703    -5.4734     2.5826 H       
  52 H52           -0.0983    -4.3366     2.5278 H       
  53 H53           -6.6564     4.7325     0.4760 H       
  54 H54           -4.3904     5.6745     0.6408 H       
  55 H55           -2.4240     4.2103     0.4351 H       
  56 H56           -5.3081     0.1378     1.8702 H       
  57 H57           -6.8115     0.3056     0.9326 H       
  58 H58           -4.8269    -2.0050     0.7278 H       
  59 H59           -6.4147    -2.0623     1.5317 H       
  60 H60           -7.5368    -1.5576    -0.6069 H       
  61 H61           -4.7162    -1.6206    -1.7753 H       
  62 H62           -6.2279    -1.4135    -2.6933 H       
  63 H63           -6.7062     0.6714    -1.4491 H       
  64 H64           -5.1254     0.7721    -2.2607 H       
  65 H65           -6.6810    -5.9033    -1.2297 H       
  66 H66           -8.4521    -5.8364    -1.0401 H       
  67 H67           -6.8823    -5.5282    -3.6412 H       
  68 H68           -7.9224    -6.8992    -3.1840 H       
  69 H69           -7.8692    -3.3026    -4.0959 H       
  70 H70           -9.6277    -3.0534    -3.9698 H       
  71 H71           -9.5433    -3.3831    -1.5362 H       
  72 H72           -8.3583    -2.1320    -1.9922 H       
  73 H73          -10.9104    -4.2242    -5.3445 H       
  74 H74          -11.2086    -4.8654    -7.7277 H       
  75 H75           -9.6043    -6.4752    -8.7362 H       
  76 H76           -7.7789    -7.3809    -7.3538 H       
  77 H77          -10.9665    -5.0209    -3.2073 H       
@<TRIPOS>BOND
   1    1    2 2
   2    1    5 1
   3    1    6 1
   4    2    3 1
   5    3    4 2
   6    3   11 1
   7    4    5 1
   8    4   44 1
   9    5   45 1
  10    6    7 2
  11    6    8 am
  12    8   16 1
  13    8   46 1
  14    9   10 ar
  15    9   14 ar
  16    9   15 1
  17   10   11 ar
  18   10   47 1
  19   11   12 ar
  20   12   13 ar
  21   12   48 1
  22   13   14 ar
  23   13   49 1
  24   15   50 1
  25   15   51 1
  26   15   52 1
  27   16   17 ar
  28   16   21 ar
  29   17   18 ar
  30   17   22 1
  31   18   19 ar
  32   18   43 1
  33   19   20 ar
  34   19   53 1
  35   20   21 ar
  36   20   54 1
  37   21   55 1
  38   22   23 1
  39   22   27 1
  40   23   24 1
  41   23   56 1
  42   23   57 1
  43   24   25 1
  44   24   58 1
  45   24   59 1
  46   25   26 1
  47   25   28 1
  48   25   60 1
  49   26   27 1
  50   26   61 1
  51   26   62 1
  52   27   63 1
  53   27   64 1
  54   28   29 2
  55   28   30 am
  56   30   31 1
  57   30   35 1
  58   31   32 1
  59   31   65 1
  60   31   66 1
  61   32   33 1
  62   32   67 1
  63   32   68 1
  64   33   34 1
  65   33   36 1
  66   33   42 1
  67   34   35 1
  68   34   69 1
  69   34   70 1
  70   35   71 1
  71   35   72 1
  72   36   37 ar
  73   36   41 ar
  74   37   38 ar
  75   37   73 1
  76   38   39 ar
  77   38   74 1
  78   39   40 ar
  79   39   75 1
  80   40   41 ar
  81   40   76 1
  82   42   77 1

#	End of record

