#	Name: ASD01814823
#	Creating user name:	WinNT
#	Creation time:	15. 06. 2019 19:33

#	Modifying user name:	WinNT
#	Modification time:	15. 06. 2019 19:33

#	Program:	/corina/corina34_cracker 3.40 0067  02.08.2006

@<TRIPOS>MOLECULE
ASD01814823
  62   65    0    0    0
SMALL
NO_CHARGES


@<TRIPOS>ATOM
   1 C1            -0.0173     1.4248     0.0099 C.3     
   2 O2             0.0021    -0.0041     0.0020 O.3     
   3 C3            -1.2953    -0.6030     0.0112 C.3     
   4 C4            -1.1538    -2.1264     0.0017 C.3     
   5 N5            -0.5155    -2.5654     1.2451 N.am    
   6 C6            -0.2873    -3.8763     1.4591 C.2     
   7 O7            -0.6110    -4.6945     0.6203 O.2     
   8 C8             0.3563    -4.3188     2.7126 C.ar    
   9 C9             0.7243    -3.3826     3.6808 C.ar    
  10 C10            1.3248    -3.8023     4.8491 C.ar    
  11 C11            1.5642    -5.1485     5.0646 C.ar    
  12 C12            2.2210    -5.5975     6.3445 C.3     
  13 C13            1.1631    -5.8766     7.3809 C.ar    
  14 C14            0.7980    -4.9059     8.2940 C.ar    
  15 C15           -0.1844    -5.1940     9.2411 C.ar    
  16 N16           -0.7668    -6.3879     9.2648 N.ar    
  17 C17           -0.4454    -7.3281     8.4095 C.ar    
  18 C18           -0.9632    -8.7417     8.2152 C.3     
  19 C19           -0.4298    -9.0883     6.8052 C.3     
  20 O20            0.7179    -8.2316     6.6779 O.3     
  21 C21            0.5286    -7.1191     7.4338 C.ar    
  22 C22           -0.5801    -4.1638    10.2260 C.2     
  23 O23           -0.0495    -3.0704    10.2082 O.2     
  24 N24           -1.5289    -4.4375    11.1432 N.am    
  25 C25           -1.9208    -3.4172    12.1187 C.3     
  26 H26           -1.0498    -2.8226    12.3943 H       
  27 C27           -2.9898    -2.5068    11.5066 C.3     
  28 C28           -3.4495    -1.4939    12.5584 C.3     
  29 O29           -3.9446    -2.1902    13.7039 O.3     
  30 C30           -2.9751    -3.0207    14.3460 C.3     
  31 C31           -2.4942    -4.0951    13.3669 C.3     
  32 H32           -3.3338    -4.7298    13.0835 H       
  33 O33           -1.4812    -4.8897    13.9869 O.3     
  34 C34            1.2034    -6.0832     4.1121 C.ar    
  35 C35            0.5948    -5.6784     2.9383 C.ar    
  36 F36            0.2368    -6.5925     2.0102 F       
  37 H37            1.0053     1.8021     0.0021 H       
  38 H38           -0.5445     1.7859    -0.8732 H       
  39 H39           -0.5275     1.7763     0.9067 H       
  40 H40           -1.8320    -0.2936     0.9080 H       
  41 H41           -1.8490    -0.2840    -0.8718 H       
  42 H42           -2.1404    -2.5824    -0.0809 H       
  43 H43           -0.5414    -2.4291    -0.8477 H       
  44 H44           -0.2572    -1.9125     1.9144 H       
  45 H45            0.5394    -2.3315     3.5149 H       
  46 H46            1.6096    -3.0783     5.5981 H       
  47 H47            2.7961    -6.5047     6.1589 H       
  48 H48            2.8860    -4.8133     6.7062 H       
  49 H49            1.2687    -3.9341     8.2746 H       
  50 H50           -0.5478    -9.4150     8.9650 H       
  51 H51           -2.0528    -8.7634     8.2354 H       
  52 H52           -0.1367   -10.1368     6.7504 H       
  53 H53           -1.1729    -8.8538     6.0430 H       
  54 H54           -1.9523    -5.3101    11.1575 H       
  55 H55           -2.5711    -1.9781    10.6503 H       
  56 H56           -3.8396    -3.1085    11.1844 H       
  57 H57           -2.6079    -0.8658    12.8505 H       
  58 H58           -4.2409    -0.8709    12.1416 H       
  59 H59           -2.1273    -2.4126    14.6615 H       
  60 H60           -3.4247    -3.4976    15.2170 H       
  61 H61           -1.7753    -5.3490    14.7854 H       
  62 H62            1.3932    -7.1319     4.2870 H       
@<TRIPOS>BOND
   1    1    2 1
   2    1   37 1
   3    1   38 1
   4    1   39 1
   5    2    3 1
   6    3    4 1
   7    3   40 1
   8    3   41 1
   9    4    5 1
  10    4   42 1
  11    4   43 1
  12    5    6 am
  13    5   44 1
  14    6    7 2
  15    6    8 1
  16    8   35 ar
  17    8    9 ar
  18    9   10 ar
  19    9   45 1
  20   10   11 ar
  21   10   46 1
  22   11   12 1
  23   11   34 ar
  24   12   13 1
  25   12   47 1
  26   12   48 1
  27   13   21 ar
  28   13   14 ar
  29   14   15 ar
  30   14   49 1
  31   15   16 ar
  32   15   22 1
  33   16   17 ar
  34   17   21 ar
  35   17   18 1
  36   18   19 1
  37   18   50 1
  38   18   51 1
  39   19   20 1
  40   19   52 1
  41   19   53 1
  42   20   21 1
  43   22   23 2
  44   22   24 am
  45   24   25 1
  46   24   54 1
  47   25   26 1
  48   25   31 1
  49   25   27 1
  50   27   28 1
  51   27   55 1
  52   27   56 1
  53   28   29 1
  54   28   57 1
  55   28   58 1
  56   29   30 1
  57   30   31 1
  58   30   59 1
  59   30   60 1
  60   31   32 1
  61   31   33 1
  62   33   61 1
  63   34   35 ar
  64   34   62 1
  65   35   36 1

#	End of record

