#	Name: ASD02039118
#	Creating user name:	WinNT
#	Creation time:	15. 06. 2019 20:17

#	Modifying user name:	WinNT
#	Modification time:	15. 06. 2019 20:17

#	Program:	/corina/corina34_cracker 3.40 0067  02.08.2006

@<TRIPOS>MOLECULE
ASD02039118
  42   45    0    0    0
SMALL
NO_CHARGES


@<TRIPOS>ATOM
   1 N1             0.0234     1.2846    -0.3605 N.2     
   2 N2             0.0398    -0.0019    -0.3617 N.2     
   3 C3             1.2244     1.7332    -0.0874 C.2     
   4 O4             2.0204     0.6620     0.0884 O.3     
   5 C5             1.2410    -0.4221    -0.0918 C.2     
   6 N6             1.6034     3.0605     0.0028 N.pl3   
   7 C7             0.6392     4.0715    -0.0882 C.ar    
   8 C8             1.6807    -1.8604     0.0030 C.3     
   9 C9             2.1412    -2.3352    -1.3511 C.ar    
  10 C10           -0.6628     3.8295     0.3297 C.ar    
  11 C11            0.9858     5.3188    -0.5911 C.ar    
  12 C12            0.0342     6.3156    -0.6800 C.ar    
  13 C13           -1.2673     6.0715    -0.2669 C.ar    
  14 O14           -2.2035     7.0538    -0.3544 O.3     
  15 C15            3.4525    -2.1942    -1.7081 C.ar    
  16 C16            1.2306    -2.9168    -2.2223 C.ar    
  17 C17            1.6297    -3.3582    -3.4657 C.ar    
  18 C18            2.9582    -3.2201    -3.8533 C.ar    
  19 C19            3.8801    -2.6347    -2.9647 C.ar    
  20 N20            3.3849    -3.6522    -5.0910 N.am    
  21 C21            4.6694    -3.5185    -5.4651 C.2     
  22 C22            5.6317    -2.9338    -4.6143 C.2     
  23 C23            5.2764    -2.4938    -3.3818 C.2     
  24 O24            5.0115    -3.9125    -6.5666 O.2     
  25 C25           -1.6131     4.8275     0.2400 C.ar    
  26 F26           -3.4864     6.3686     1.4391 F       
  27 F27           -4.3528     7.8487    -0.0702 F       
  28 C28           -3.5236     6.7332     0.0890 C.3     
  29 F29           -4.0241     5.6684    -0.6680 F       
  30 H30            2.5372     3.2907     0.1291 H       
  31 H31            2.5014    -1.9432     0.7155 H       
  32 H32            0.8450    -2.4745     0.3385 H       
  33 H33           -0.9323     2.8610     0.7244 H       
  34 H34            1.9992     5.5092    -0.9121 H       
  35 H35            0.3035     7.2856    -1.0711 H       
  36 H36            4.1558    -1.7443    -1.0230 H       
  37 H37            0.1987    -3.0251    -1.9227 H       
  38 H38            0.9136    -3.8098    -4.1362 H       
  39 H39            2.7494    -4.0588    -5.7006 H       
  40 H40            6.6560    -2.8410    -4.9440 H       
  41 H41            6.0063    -2.0451    -2.7243 H       
  42 H42           -2.6266     4.6383     0.5615 H       
@<TRIPOS>BOND
   1    1    2 1
   2    1    3 2
   3    2    5 2
   4    3    4 1
   5    3    6 1
   6    4    5 1
   7    5    8 1
   8    6    7 1
   9    6   30 1
  10    7   10 ar
  11    7   11 ar
  12    8    9 1
  13    8   31 1
  14    8   32 1
  15    9   15 ar
  16    9   16 ar
  17   10   25 ar
  18   10   33 1
  19   11   12 ar
  20   11   34 1
  21   12   13 ar
  22   12   35 1
  23   13   25 ar
  24   13   14 1
  25   14   28 1
  26   15   19 ar
  27   15   36 1
  28   16   17 ar
  29   16   37 1
  30   17   18 ar
  31   17   38 1
  32   18   19 ar
  33   18   20 1
  34   19   23 1
  35   20   21 am
  36   20   39 1
  37   21   22 1
  38   21   24 2
  39   22   23 2
  40   22   40 1
  41   23   41 1
  42   25   42 1
  43   26   28 1
  44   27   28 1
  45   28   29 1

#	End of record

