#	Name: ASD01918298
#	Creating user name:	WinNT
#	Creation time:	15. 06. 2019 20:11

#	Modifying user name:	WinNT
#	Modification time:	15. 06. 2019 20:11

#	Program:	/corina/corina34_cracker 3.40 0067  02.08.2006

@<TRIPOS>MOLECULE
ASD01918298
  44   47    0    0    0
SMALL
NO_CHARGES


@<TRIPOS>ATOM
   1 F1             0.0021    -0.0041     0.0020 F       
   2 C2            -0.0162     1.3468     0.0094 C.ar    
   3 C3            -1.2274     2.0209     0.0304 C.ar    
   4 C4            -1.2518     3.3994     0.0381 C.ar    
   5 C5            -0.0538     4.1164     0.0251 C.ar    
   6 C6             1.1632     3.4323     0.0045 C.ar    
   7 C7             1.1762     2.0537     0.0019 C.ar    
   8 C8            -0.0739     5.5937     0.0328 C.2     
   9 N9             0.9750     6.3975     0.0170 N.2     
  10 C10            0.4742     7.6425     0.0326 C.2     
  11 N11           -0.8223     7.5452     0.0565 N.2     
  12 O12           -1.1609     6.3806     0.0512 O.3     
  13 C13            1.2705     8.9219     0.0246 C.3     
  14 C14            0.9265     9.7169    -1.2219 C.3     
  15 C15            1.7944    10.9456    -1.4239 C.3     
  16 C16            1.5295    11.9855    -0.3335 C.3     
  17 N17            2.3840    11.6808     0.8256 N.am    
  18 C18            3.4784    12.5046     1.1192 C.ar    
  19 C19            3.3219    13.5930     1.9656 C.ar    
  20 C20            4.4027    14.4043     2.2538 C.ar    
  21 C21            5.6409    14.1332     1.6996 C.ar    
  22 Cl22           6.9960    15.1549     2.0650 Cl      
  23 C23            5.8017    13.0486     0.8549 C.ar    
  24 C24            4.7252    12.2299     0.5674 C.ar    
  25 F25            4.8829    11.1680    -0.2527 F       
  26 C26            2.1229    10.6256     1.5984 C.2     
  27 O27            2.8301    10.3868     2.5545 O.2     
  28 C28            0.9462     9.7251     1.2866 C.3     
  29 H29           -2.1534     1.4653     0.0404 H       
  30 H30           -2.1959     3.9236     0.0537 H       
  31 H31            2.0927     3.9821    -0.0059 H       
  32 H32            2.1170     1.5235    -0.0103 H       
  33 H33            2.3339     8.6827     0.0149 H       
  34 H34            1.0359     9.0671    -2.0902 H       
  35 H35           -0.1145    10.0331    -1.1567 H       
  36 H36            2.8437    10.6523    -1.3922 H       
  37 H37            1.5747    11.3834    -2.3976 H       
  38 H38            1.7667    12.9801    -0.7113 H       
  39 H39            0.4817    11.9449    -0.0362 H       
  40 H40            2.3557    13.8061     2.3986 H       
  41 H41            4.2805    15.2516     2.9123 H       
  42 H42            6.7694    12.8392     0.4236 H       
  43 H43            0.0563    10.3311     1.1164 H       
  44 H44            0.7751     9.0441     2.1203 H       
@<TRIPOS>BOND
   1    1    2 1
   2    2    7 ar
   3    2    3 ar
   4    3    4 ar
   5    3   29 1
   6    4    5 ar
   7    4   30 1
   8    5    6 ar
   9    5    8 1
  10    6    7 ar
  11    6   31 1
  12    7   32 1
  13    8   12 1
  14    8    9 2
  15    9   10 1
  16   10   11 2
  17   10   13 1
  18   11   12 1
  19   13   28 1
  20   13   14 1
  21   13   33 1
  22   14   15 1
  23   14   34 1
  24   14   35 1
  25   15   16 1
  26   15   36 1
  27   15   37 1
  28   16   17 1
  29   16   38 1
  30   16   39 1
  31   17   18 1
  32   17   26 am
  33   18   24 ar
  34   18   19 ar
  35   19   20 ar
  36   19   40 1
  37   20   21 ar
  38   20   41 1
  39   21   22 1
  40   21   23 ar
  41   23   24 ar
  42   23   42 1
  43   24   25 1
  44   26   27 2
  45   26   28 1
  46   28   43 1
  47   28   44 1

#	End of record

