#	Name: ASD01914927
#	Creating user name:	WinNT
#	Creation time:	15. 06. 2019 20:04

#	Modifying user name:	WinNT
#	Modification time:	15. 06. 2019 20:04

#	Program:	/corina/corina34_cracker 3.40 0067  02.08.2006

@<TRIPOS>MOLECULE
ASD01914927
  54   58    0    0    0
SMALL
NO_CHARGES


@<TRIPOS>ATOM
   1 C1            -0.0033     1.3310    -0.0213 C.2     
   2 N2             0.0139     0.0589     0.3179 N.2     
   3 C3             1.3081     1.7201    -0.3419 C.2     
   4 C4             2.1160     0.6325    -0.1826 C.2     
   5 N5             1.3319    -0.4058     0.2258 N.pl3   
   6 C6            -1.2037     2.2031    -0.0639 C.ar    
   7 C7            -2.4536     1.6891     0.2746 C.ar    
   8 C8            -3.5665     2.5044     0.2333 C.ar    
   9 C9            -3.4426     3.8294    -0.1438 C.ar    
  10 C10           -2.2041     4.3448    -0.4809 C.ar    
  11 C11           -1.0837     3.5400    -0.4370 C.ar    
  12 C12            3.5775     0.5877    -0.4112 C.ar    
  13 C13            4.1835     1.5202    -1.2532 C.ar    
  14 C14            5.5466     1.4731    -1.4624 C.ar    
  15 C15            6.3119     0.5037    -0.8391 C.ar    
  16 C16            5.7166    -0.4242    -0.0032 C.ar    
  17 C17            4.3554    -0.3837     0.2189 C.ar    
  18 C18            1.7879    -1.7672     0.5172 C.3     
  19 C19            2.0660    -1.8988     1.9925 C.2     
  20 N20            2.4996    -3.0721     2.4945 N.am    
  21 O21            1.8996    -0.9490     2.7280 O.2     
  22 C22            2.7769    -3.2221     3.9311 C.3     
  23 C23            2.0359    -4.4619     4.4430 C.3     
  24 N24            2.3977    -5.6209     3.6161 N.3     
  25 C25            1.9696    -5.4362     2.2231 C.3     
  26 C26            2.7021    -4.2381     1.6211 C.3     
  27 C27            1.8757    -6.7909     4.1452 C.2     
  28 N28            2.0300    -7.9719     3.6321 N.2     
  29 S29            0.9407    -6.8883     5.5732 S.3     
  30 C30            0.7986    -8.6329     5.3743 C.2     
  31 C31            1.4615    -8.9793     4.2706 C.2     
  32 H32            1.6207     2.7042    -0.6584 H       
  33 H33           -2.5515     0.6544     0.5685 H       
  34 H34           -4.5359     2.1069     0.4955 H       
  35 H35           -4.3162     4.4637    -0.1755 H       
  36 H36           -2.1130     5.3801    -0.7746 H       
  37 H37           -0.1171     3.9435    -0.7000 H       
  38 H38            3.5871     2.2772    -1.7407 H       
  39 H39            6.0170     2.1942    -2.1144 H       
  40 H40            7.3784     0.4709    -1.0060 H       
  41 H41            6.3193    -1.1790     0.4799 H       
  42 H42            3.8919    -1.1084     0.8719 H       
  43 H43            1.0147    -2.4790     0.2283 H       
  44 H44            2.6994    -1.9730    -0.0441 H       
  45 H45            3.8487    -3.3462     4.0861 H       
  46 H46            2.4265    -2.3393     4.4658 H       
  47 H47            2.3172    -4.6520     5.4787 H       
  48 H48            0.9606    -4.2936     4.3828 H       
  49 H49            2.2030    -6.3328     1.6489 H       
  50 H50            0.8953    -5.2543     2.1938 H       
  51 H51            2.3049    -4.0272     0.6282 H       
  52 H52            3.7678    -4.4567     1.5535 H       
  53 H53            0.2700    -9.3053     6.0338 H       
  54 H54            1.5269   -10.0005     3.9254 H       
@<TRIPOS>BOND
   1    1    2 2
   2    1    3 1
   3    1    6 1
   4    2    5 1
   5    3    4 2
   6    3   32 1
   7    4    5 1
   8    4   12 1
   9    5   18 1
  10    6    7 ar
  11    6   11 ar
  12    7    8 ar
  13    7   33 1
  14    8    9 ar
  15    8   34 1
  16    9   10 ar
  17    9   35 1
  18   10   11 ar
  19   10   36 1
  20   11   37 1
  21   12   13 ar
  22   12   17 ar
  23   13   14 ar
  24   13   38 1
  25   14   15 ar
  26   14   39 1
  27   15   16 ar
  28   15   40 1
  29   16   17 ar
  30   16   41 1
  31   17   42 1
  32   18   19 1
  33   18   43 1
  34   18   44 1
  35   19   20 am
  36   19   21 2
  37   20   22 1
  38   20   26 1
  39   22   23 1
  40   22   45 1
  41   22   46 1
  42   23   24 1
  43   23   47 1
  44   23   48 1
  45   24   25 1
  46   24   27 1
  47   25   26 1
  48   25   49 1
  49   25   50 1
  50   26   51 1
  51   26   52 1
  52   27   28 2
  53   27   29 1
  54   28   31 1
  55   29   30 1
  56   30   31 2
  57   30   53 1
  58   31   54 1

#	End of record

