#	Name: ASD01910594
#	Creating user name:	WinNT
#	Creation time:	15. 06. 2019 19:56

#	Modifying user name:	WinNT
#	Modification time:	15. 06. 2019 19:56

#	Program:	/corina/corina34_cracker 3.40 0067  02.08.2006

@<TRIPOS>MOLECULE
ASD01910594
  42   45    0    0    0
SMALL
NO_CHARGES


@<TRIPOS>ATOM
   1 C1            -0.6447     2.2360     0.1963 C.ar    
   2 C2            -0.7659     0.8585     0.2595 C.ar    
   3 C3             0.3786     0.0758     0.3008 C.ar    
   4 C4             1.6114     0.7059     0.2770 C.ar    
   5 C5             1.6593     2.0979     0.2128 C.ar    
   6 N6             0.5395     2.8102     0.1749 N.ar    
   7 C7             2.9685     2.7868     0.1866 C.2     
   8 N8             3.1727     4.0899     0.1272 N.2     
   9 C9             4.5057     4.2457     0.1258 C.2     
  10 N10            5.0404     3.0617     0.1830 N.2     
  11 O11            4.1789     2.2090     0.2246 O.3     
  12 C12            5.2484     5.5557     0.0680 C.3     
  13 C13            6.1223     5.7030     1.3157 C.3     
  14 C14            6.8518     7.0476     1.2738 C.3     
  15 C15            7.7589     7.0937     0.0401 C.3     
  16 N16            6.9496     6.8088    -1.1527 N.am    
  17 C17            6.1373     5.5849    -1.1794 C.3     
  18 C18            6.9525     7.6541    -2.2024 C.2     
  19 C19            6.2385     7.2924    -3.4440 C.ar    
  20 O20            7.5426     8.7143    -2.1274 O.2     
  21 C21            5.4963     8.2478    -4.1388 C.ar    
  22 N22            4.8594     7.9267    -5.2458 N.ar    
  23 C23            4.8952     6.7019    -5.7406 C.ar    
  24 C24            5.6117     5.6960    -5.1081 C.ar    
  25 C25            6.3007     5.9853    -3.9460 C.ar    
  26 F26            4.2235     6.4248    -6.8795 F       
  27 H27           -1.5339     2.8477     0.1595 H       
  28 H28           -1.7424     0.3975     0.2770 H       
  29 H29            0.3097    -1.0009     0.3507 H       
  30 H30            2.5229     0.1274     0.3082 H       
  31 H31            4.5337     6.3776     0.0253 H       
  32 H32            5.4948     5.6578     2.2059 H       
  33 H33            6.8526     4.8943     1.3451 H       
  34 H34            6.1224     7.8558     1.2195 H       
  35 H35            7.4559     7.1620     2.1739 H       
  36 H36            8.2047     8.0844    -0.0489 H       
  37 H37            8.5446     6.3444     0.1361 H       
  38 H38            6.7908     4.7125    -1.1829 H       
  39 H39            5.5131     5.5800    -2.0730 H       
  40 H40            5.4434     9.2597    -3.7652 H       
  41 H41            5.6338     4.6987    -5.5218 H       
  42 H42            6.8667     5.2217    -3.4333 H       
@<TRIPOS>BOND
   1    1    2 ar
   2    1    6 ar
   3    1   27 1
   4    2    3 ar
   5    2   28 1
   6    3    4 ar
   7    3   29 1
   8    4    5 ar
   9    4   30 1
  10    5    6 ar
  11    5    7 1
  12    7    8 2
  13    7   11 1
  14    8    9 1
  15    9   10 2
  16    9   12 1
  17   10   11 1
  18   12   13 1
  19   12   17 1
  20   12   31 1
  21   13   14 1
  22   13   32 1
  23   13   33 1
  24   14   15 1
  25   14   34 1
  26   14   35 1
  27   15   16 1
  28   15   36 1
  29   15   37 1
  30   16   17 1
  31   16   18 am
  32   17   38 1
  33   17   39 1
  34   18   19 1
  35   18   20 2
  36   19   21 ar
  37   19   25 ar
  38   21   22 ar
  39   21   40 1
  40   22   23 ar
  41   23   24 ar
  42   23   26 1
  43   24   25 ar
  44   24   41 1
  45   25   42 1

#	End of record

