#	Name: ASD07330003
#	Creating user name:	WinNT
#	Creation time:	15. 06. 2019 21:11

#	Modifying user name:	WinNT
#	Modification time:	15. 06. 2019 21:11

#	Program:	/corina/corina34_cracker 3.40 0067  02.08.2006

@<TRIPOS>MOLECULE
ASD07330003
  69   72    0    0    0
SMALL
NO_CHARGES


@<TRIPOS>ATOM
   1 C1             3.2127    -1.4439    -2.4755 C.3     
   2 C2             2.1088    -2.1104    -1.6520 C.3     
   3 N3             2.6078    -2.3919    -0.3037 N.am    
   4 C4             1.8036    -2.9814     0.6031 C.2     
   5 O5             0.6639    -3.2797     0.3020 O.2     
   6 C6             2.3062    -3.2649     1.9610 C.ar    
   7 C7             3.6123    -2.9269     2.3170 C.ar    
   8 N8             4.0623    -3.1794     3.5287 N.ar    
   9 C9             3.3011    -3.7578     4.4470 C.ar    
  10 C10            1.9855    -4.1232     4.1607 C.ar    
  11 C11            1.4753    -3.8733     2.9148 C.ar    
  12 Cl12           1.0025    -4.8808     5.3746 Cl      
  13 N13            3.8191    -4.0030     5.7080 N.3     
  14 C14            4.9236    -4.9704     5.6446 C.3     
  15 C15            5.4144    -5.2739     7.0621 C.3     
  16 N16            5.8477    -4.0256     7.7054 N.3     
  17 C17            4.7432    -3.0583     7.7688 C.3     
  18 C18            4.2524    -2.7548     6.3513 C.3     
  19 C19            5.2330    -1.7668     8.4268 C.3     
  20 C20            4.0626    -0.7918     8.5703 C.3     
  21 C21            6.3971    -4.2857     9.0427 C.3     
  22 C22            5.3480    -5.0037     9.8962 C.3     
  23 C23            5.9465    -5.3261    11.2672 C.3     
  24 N24            7.1313    -6.1770    11.0977 N.3     
  25 C25            8.1715    -5.4903    10.3212 C.3     
  26 C26            7.6393    -5.1728     8.9219 C.3     
  27 C27            7.6515    -6.6204    12.3980 C.3     
  28 C28            8.7036    -7.6779    12.1840 C.ar    
  29 C29           10.0293    -7.3140    12.0380 C.ar    
  30 C30           10.9947    -8.2834    11.8417 C.ar    
  31 C31           10.6341    -9.6182    11.7914 C.ar    
  32 C32            9.3073    -9.9817    11.9376 C.ar    
  33 C33            8.3435    -9.0118    12.1394 C.ar    
  34 Cl34          11.8461   -10.8363    11.5443 Cl      
  35 H35            4.0724    -2.1111    -2.5381 H       
  36 H36            2.8414    -1.2345    -3.4787 H       
  37 H37            3.5107    -0.5113    -1.9963 H       
  38 H38            1.2491    -1.4433    -1.5893 H       
  39 H39            1.8108    -3.0430    -2.1312 H       
  40 H40            3.5170    -2.1540    -0.0635 H       
  41 H41            4.2596    -2.4547     1.5929 H       
  42 H42            0.4599    -4.1467     2.6687 H       
  43 H43            4.5746    -5.8905     5.1758 H       
  44 H44            5.7413    -4.5508     5.0586 H       
  45 H45            4.6043    -5.7186     7.6400 H       
  46 H46            6.2527    -5.9690     7.0157 H       
  47 H47            3.9255    -3.4779     8.3548 H       
  48 H48            5.0625    -2.3100     5.7733 H       
  49 H49            3.4141    -2.0596     6.3977 H       
  50 H50            5.6404    -1.9929     9.4122 H       
  51 H51            6.0084    -1.3151     7.8080 H       
  52 H52            3.3086    -1.2237     9.2284 H       
  53 H53            4.4209     0.1461     8.9945 H       
  54 H54            3.6245    -0.6033     7.5902 H       
  55 H55            6.6672    -3.3415     9.5155 H       
  56 H56            4.4778    -4.3593    10.0214 H       
  57 H57            5.0487    -5.9286     9.4031 H       
  58 H58            6.2329    -4.3999    11.7654 H       
  59 H59            5.2067    -5.8501    11.8724 H       
  60 H60            8.4474    -4.5633    10.8238 H       
  61 H61            9.0476    -6.1335    10.2393 H       
  62 H62            7.3761    -6.1003     8.4135 H       
  63 H63            8.4062    -4.6492     8.3511 H       
  64 H64            8.0907    -5.7717    12.9222 H       
  65 H65            6.8372    -7.0333    12.9934 H       
  66 H66           10.3105    -6.2720    12.0769 H       
  67 H67           12.0303    -7.9990    11.7273 H       
  68 H68            9.0252   -11.0235    11.8984 H       
  69 H69            7.3077    -9.2955    12.2536 H       
@<TRIPOS>BOND
   1    1    2 1
   2    1   35 1
   3    1   36 1
   4    1   37 1
   5    2    3 1
   6    2   38 1
   7    2   39 1
   8    3    4 am
   9    3   40 1
  10    4    5 2
  11    4    6 1
  12    6    7 ar
  13    6   11 ar
  14    7    8 ar
  15    7   41 1
  16    8    9 ar
  17    9   10 ar
  18    9   13 1
  19   10   11 ar
  20   10   12 1
  21   11   42 1
  22   13   14 1
  23   13   18 1
  24   14   15 1
  25   14   43 1
  26   14   44 1
  27   15   16 1
  28   15   45 1
  29   15   46 1
  30   16   21 1
  31   16   17 1
  32   17   18 1
  33   17   19 1
  34   17   47 1
  35   18   48 1
  36   18   49 1
  37   19   20 1
  38   19   50 1
  39   19   51 1
  40   20   52 1
  41   20   53 1
  42   20   54 1
  43   21   22 1
  44   21   26 1
  45   21   55 1
  46   22   23 1
  47   22   56 1
  48   22   57 1
  49   23   24 1
  50   23   58 1
  51   23   59 1
  52   24   25 1
  53   24   27 1
  54   25   26 1
  55   25   60 1
  56   25   61 1
  57   26   62 1
  58   26   63 1
  59   27   28 1
  60   27   64 1
  61   27   65 1
  62   28   29 ar
  63   28   33 ar
  64   29   30 ar
  65   29   66 1
  66   30   31 ar
  67   30   67 1
  68   31   32 ar
  69   31   34 1
  70   32   33 ar
  71   32   68 1
  72   33   69 1

#	End of record

