#	Name: ASD01911208
#	Creating user name:	WinNT
#	Creation time:	15. 06. 2019 19:57

#	Modifying user name:	WinNT
#	Modification time:	15. 06. 2019 19:57

#	Program:	/corina/corina34_cracker 3.40 0067  02.08.2006

@<TRIPOS>MOLECULE
ASD01911208
  56   58    0    0    0
SMALL
NO_CHARGES


@<TRIPOS>ATOM
   1 C1            -6.6946    -6.3228    -5.1303 C.ar    
   2 N2            -6.4513    -6.1992    -3.8440 N.ar    
   3 C3            -7.4203    -5.9427    -2.9734 C.ar    
   4 C4            -8.7372    -5.7961    -3.4028 C.ar    
   5 C5            -9.0230    -5.9212    -4.7534 C.ar    
   6 C6            -7.9814    -6.1888    -5.6275 C.ar    
   7 C7            -7.0983    -5.8119    -1.5335 C.2     
   8 N8            -5.8418    -6.0366    -1.1008 N.am    
   9 C9            -5.5357    -5.9040     0.2576 C.ar    
  10 C10           -4.2739    -5.4750     0.6476 C.ar    
  11 C11           -3.9744    -5.3445     1.9896 C.ar    
  12 C12           -4.9303    -5.6408     2.9451 C.ar    
  13 C13           -6.1886    -6.0691     2.5591 C.ar    
  14 C14           -6.4952    -6.1958     1.2187 C.ar    
  15 C15           -3.2320    -5.1525    -0.3924 C.3     
  16 N16           -3.3669    -3.7521    -0.8010 N.am    
  17 O17           -7.9671    -5.5020    -0.7423 O.2     
  18 Cl18          -4.5506    -5.4757     4.6310 Cl      
  19 C19           -4.0740    -3.4371    -1.9043 C.2     
  20 C20           -4.3222    -2.0197    -2.2436 C.ar    
  21 C21           -5.6226    -1.5746    -2.4858 C.ar    
  22 C22           -5.8481    -0.2495    -2.8023 C.ar    
  23 C23           -4.7873     0.6367    -2.8801 C.ar    
  24 C24           -3.4950     0.2010    -2.6414 C.ar    
  25 C25           -3.2576    -1.1202    -2.3175 C.ar    
  26 O26           -4.5075    -4.3184    -2.6205 O.2     
  27 C27           -2.7333    -2.6941    -0.0102 C.3     
  28 Cl28          -2.1712     1.3195    -2.7424 Cl      
  29 Cl29          -7.4649     0.3060    -3.1038 Cl      
  30 C30           -1.2450    -2.6201    -0.3569 C.3     
  31 N31           -0.7552    -1.2548    -0.1239 N.3     
  32 C32           -0.6943    -0.9554     1.3129 C.3     
  33 C33            0.5525    -1.0489    -0.7605 C.3     
  34 H34           -5.8799    -6.5271    -5.8092 H       
  35 H35           -9.5246    -5.5882    -2.6933 H       
  36 H36          -10.0344    -5.8128    -5.1163 H       
  37 H37           -8.1705    -6.2918    -6.6858 H       
  38 H38           -5.1498    -6.2903    -1.7314 H       
  39 H39           -2.9931    -5.0112     2.2935 H       
  40 H40           -6.9327    -6.3004     3.3070 H       
  41 H41           -7.4773    -6.5297     0.9181 H       
  42 H42           -2.2387    -5.3149     0.0258 H       
  43 H43           -3.3715    -5.7988    -1.2590 H       
  44 H44           -6.4508    -2.2652    -2.4260 H       
  45 H45           -4.9685     1.6721    -3.1283 H       
  46 H46           -2.2492    -1.4589    -2.1312 H       
  47 H47           -3.2069    -1.7387    -0.2359 H       
  48 H48           -2.8487    -2.9151     1.0509 H       
  49 H49           -0.6905    -3.3172     0.2714 H       
  50 H50           -1.1026    -2.8833    -1.4050 H       
  51 H51           -0.0915    -1.7112     1.8163 H       
  52 H52           -0.2441     0.0262     1.4608 H       
  53 H53           -1.7022    -0.9590     1.7279 H       
  54 H54            0.4630    -1.2095    -1.8349 H       
  55 H55            0.8918    -0.0303    -0.5724 H       
  56 H56            1.2732    -1.7541    -0.3465 H       
@<TRIPOS>BOND
   1    1    2 ar
   2    1    6 ar
   3    1   34 1
   4    2    3 ar
   5    3    4 ar
   6    3    7 1
   7    4    5 ar
   8    4   35 1
   9    5    6 ar
  10    5   36 1
  11    6   37 1
  12    7    8 am
  13    7   17 2
  14    8    9 1
  15    8   38 1
  16    9   10 ar
  17    9   14 ar
  18   10   11 ar
  19   10   15 1
  20   11   12 ar
  21   11   39 1
  22   12   13 ar
  23   12   18 1
  24   13   14 ar
  25   13   40 1
  26   14   41 1
  27   15   16 1
  28   15   42 1
  29   15   43 1
  30   16   19 am
  31   16   27 1
  32   19   20 1
  33   19   26 2
  34   20   21 ar
  35   20   25 ar
  36   21   22 ar
  37   21   44 1
  38   22   23 ar
  39   22   29 1
  40   23   24 ar
  41   23   45 1
  42   24   25 ar
  43   24   28 1
  44   25   46 1
  45   27   30 1
  46   27   47 1
  47   27   48 1
  48   30   31 1
  49   30   49 1
  50   30   50 1
  51   31   32 1
  52   31   33 1
  53   32   51 1
  54   32   52 1
  55   32   53 1
  56   33   54 1
  57   33   55 1
  58   33   56 1

#	End of record

