#	Name: ASD06170196
#	Creating user name:	WinNT
#	Creation time:	15. 06. 2019 21:05

#	Modifying user name:	WinNT
#	Modification time:	15. 06. 2019 21:05

#	Program:	/corina/corina34_cracker 3.40 0067  02.08.2006

@<TRIPOS>MOLECULE
ASD06170196
  67   72    0    0    0
SMALL
NO_CHARGES


@<TRIPOS>ATOM
   1 C1            -0.0468     1.0365    -0.3731 C.2     
   2 C2             0.1811    -0.3594    -0.2698 C.2     
   3 C3             1.4738    -0.8482    -0.4355 C.2     
   4 C4             2.5132     0.0581    -0.7002 C.2     
   5 C5             2.2394     1.4053    -0.7909 C.2     
   6 N6             0.9769     1.8720    -0.6280 N.am    
   7 C7            -0.9332    -1.2781     0.0090 C.2     
   8 O8            -0.7753    -2.4788    -0.1070 O.2     
   9 N9            -2.1292    -0.7897     0.3930 N.am    
  10 N10            5.6663    -1.4503    -1.6897 N.pl3   
  11 N11            6.0487    -0.7658    -0.5296 N.2     
  12 C12            4.9998    -0.1569    -0.0424 C.2     
  13 C13            3.9037    -0.4341    -0.8813 C.2     
  14 C14            4.3492    -1.2360    -1.8900 C.2     
  15 C15            0.7340     3.2473    -0.7268 C.ar    
  16 C16            1.1466     4.1014     0.2877 C.ar    
  17 C17            0.9059     5.4576     0.1870 C.ar    
  18 C18            0.2549     5.9653    -0.9223 C.ar    
  19 C19           -0.1572     5.1175    -1.9341 C.ar    
  20 C20            0.0852     3.7610    -1.8420 C.ar    
  21 O21           -1.1738     1.4803    -0.2357 O.2     
  22 C22           -3.2230    -1.6514     0.5394 C.ar    
  23 C23           -4.5041    -1.2043     0.2426 C.ar    
  24 C24           -5.5831    -2.0559     0.3870 C.ar    
  25 C25           -5.3853    -3.3587     0.8288 C.ar    
  26 C26           -4.1060    -3.8039     1.1247 C.ar    
  27 C27           -3.0265    -2.9548     0.9756 C.ar    
  28 F28           -6.8297    -1.6220     0.0991 F       
  29 O29           -6.4467    -4.1968     0.9714 O.3     
  30 N30           -8.2829    -5.5626    -2.4599 N.ar    
  31 C31           -7.3492    -4.6432    -2.5322 C.ar    
  32 C32           -6.7088    -4.1588    -1.3986 C.ar    
  33 C33           -7.0550    -4.6504    -0.1522 C.ar    
  34 C34           -8.0615    -5.6401    -0.0865 C.ar    
  35 C35           -8.4663    -6.1859     1.1407 C.ar    
  36 C36           -9.4422    -7.1400     1.1667 C.ar    
  37 C37          -10.0435    -7.5801    -0.0211 C.ar    
  38 C38           -9.6681    -7.0660    -1.2287 C.ar    
  39 C39           -8.6673    -6.0822    -1.2879 C.ar    
  40 O40          -11.0126    -8.5313     0.0306 O.3     
  41 C41          -11.5880    -8.9393    -1.2122 C.3     
  42 O42           -9.8347    -7.6692     2.3562 O.3     
  43 C43           -9.1837    -7.1798     3.5304 C.3     
  44 H44            1.6741    -1.9069    -0.3614 H       
  45 H45            3.0416     2.0992    -0.9942 H       
  46 H46           -2.2323     0.1588     0.5681 H       
  47 H47            6.2484    -1.9828    -2.2540 H       
  48 H48            4.9777     0.4526     0.8489 H       
  49 H49            3.7555    -1.6284    -2.7024 H       
  50 H50            1.6548     3.7054     1.1545 H       
  51 H51            1.2261     6.1222     0.9758 H       
  52 H52            0.0675     7.0262    -0.9985 H       
  53 H53           -0.6654     5.5172    -2.7992 H       
  54 H54           -0.2333     3.0999    -2.6344 H       
  55 H55           -4.6570    -0.1917    -0.1003 H       
  56 H56           -3.9528    -4.8164     1.4680 H       
  57 H57           -2.0299    -3.3038     1.2021 H       
  58 H58           -7.0708    -4.2525    -3.4998 H       
  59 H59           -5.9438    -3.4020    -1.4897 H       
  60 H60           -8.0079    -5.8533     2.0603 H       
  61 H61          -10.1392    -7.4146    -2.1358 H       
  62 H62          -12.0474    -8.0794    -1.6996 H       
  63 H63          -10.8096    -9.3489    -1.8559 H       
  64 H64          -12.3460    -9.7009    -1.0290 H       
  65 H65           -9.3512    -6.1063     3.6179 H       
  66 H66           -9.5897    -7.6836     4.4076 H       
  67 H67           -8.1138    -7.3762     3.4612 H       
@<TRIPOS>BOND
   1    1    2 1
   2    1    6 am
   3    1   21 2
   4    2    3 2
   5    2    7 1
   6    3    4 1
   7    3   44 1
   8    4    5 2
   9    4   13 1
  10    5    6 1
  11    5   45 1
  12    6   15 1
  13    7    8 2
  14    7    9 am
  15    9   22 1
  16    9   46 1
  17   10   11 1
  18   10   14 1
  19   10   47 1
  20   11   12 2
  21   12   13 1
  22   12   48 1
  23   13   14 2
  24   14   49 1
  25   15   16 ar
  26   15   20 ar
  27   16   17 ar
  28   16   50 1
  29   17   18 ar
  30   17   51 1
  31   18   19 ar
  32   18   52 1
  33   19   20 ar
  34   19   53 1
  35   20   54 1
  36   22   23 ar
  37   22   27 ar
  38   23   24 ar
  39   23   55 1
  40   24   25 ar
  41   24   28 1
  42   25   26 ar
  43   25   29 1
  44   26   27 ar
  45   26   56 1
  46   27   57 1
  47   29   33 1
  48   30   31 ar
  49   30   39 ar
  50   31   32 ar
  51   31   58 1
  52   32   33 ar
  53   32   59 1
  54   33   34 ar
  55   34   35 ar
  56   34   39 ar
  57   35   36 ar
  58   35   60 1
  59   36   37 ar
  60   36   42 1
  61   37   38 ar
  62   37   40 1
  63   38   39 ar
  64   38   61 1
  65   40   41 1
  66   41   62 1
  67   41   63 1
  68   41   64 1
  69   42   43 1
  70   43   65 1
  71   43   66 1
  72   43   67 1

#	End of record

