#	Name: ASD03920017
#	Creating user name:	WinNT
#	Creation time:	15. 06. 2019 20:47

#	Modifying user name:	WinNT
#	Modification time:	15. 06. 2019 20:47

#	Program:	/corina/corina34_cracker 3.40 0067  02.08.2006

@<TRIPOS>MOLECULE
ASD03920017
  54   57    0    0    0
SMALL
NO_CHARGES


@<TRIPOS>ATOM
   1 C1            -0.0180     1.4742     0.0101 C.2     
   2 C2             0.0021    -0.0041     0.0020 C.ar    
   3 C3             1.2173    -0.6995    -0.0133 C.ar    
   4 C4             1.1813    -2.0826    -0.0199 C.ar    
   5 C5            -0.0424    -2.7281    -0.0112 C.ar    
   6 N6            -1.1719    -2.0465     0.0032 N.ar    
   7 C7            -1.1895    -0.7297     0.0154 C.ar    
   8 O8             1.0263     2.0962     0.0035 O.2     
   9 N9            -1.1942     2.1321     0.0193 N.am    
  10 C10           -0.0858    -4.2345    -0.0189 C.3     
  11 F11           -0.0861    -4.7077     1.2977 F       
  12 F12           -1.2475    -4.6642    -0.6692 F       
  13 F13            1.0360    -4.7299    -0.6922 F       
  14 C14           -1.2141     3.5970     0.0274 C.3     
  15 C15           -2.5311     4.0925    -0.5733 C.3     
  16 C16           -3.7017     3.5619     0.2567 C.3     
  17 C17           -3.5761     4.0658     1.6959 C.3     
  18 C18           -2.2591     3.5703     2.2966 C.3     
  19 C19           -1.0885     4.1008     1.4665 C.3     
  20 N20           -4.6971     3.5578     2.4907 N.pl3   
  21 N21           -5.9022     4.2232     2.7570 N.2     
  22 N22           -6.6359     3.4571     3.4869 N.2     
  23 C23           -5.9843     2.3062     3.7263 C.2     
  24 C24           -4.7706     2.3584     3.1018 C.2     
  25 C25           -6.4954     1.1759     4.5248 C.2     
  26 O26           -5.8138     0.1802     4.6749 O.2     
  27 N27           -7.7178     1.2469     5.0879 N.am    
  28 C28           -8.3473     0.1988     5.9044 C.3     
  29 C29           -9.7462     0.7105     6.3079 C.3     
  30 C30          -10.0497     1.7813     5.2269 C.3     
  31 C31           -8.6426     2.3911     4.9925 C.3     
  32 H32            2.1585    -0.1699    -0.0202 H       
  33 H33            2.0987    -2.6523    -0.0321 H       
  34 H34           -2.1345    -0.2071     0.0314 H       
  35 H35           -2.0276     1.6358     0.0206 H       
  36 H36           -0.3801     3.9749    -0.5640 H       
  37 H37           -2.5459     5.1823    -0.5673 H       
  38 H38           -2.6206     3.7335    -1.5986 H       
  39 H39           -4.6400     3.9149    -0.1712 H       
  40 H40           -3.6870     2.4721     0.2507 H       
  41 H41           -3.5909     5.1557     1.7019 H       
  42 H42           -2.1696     3.9293     3.3219 H       
  43 H43           -2.2443     2.4804     2.2906 H       
  44 H44           -0.1502     3.7478     1.8945 H       
  45 H45           -1.1032     5.1907     1.4725 H       
  46 H46           -4.0142     1.5875     3.0996 H       
  47 H47           -8.4416    -0.7180     5.3223 H       
  48 H48           -7.7486     0.0141     6.7963 H       
  49 H49          -10.4782    -0.0961     6.2680 H       
  50 H50           -9.7207     1.1608     7.3002 H       
  51 H51          -10.4357     1.3202     4.3178 H       
  52 H52          -10.7415     2.5337     5.6056 H       
  53 H53           -8.4136     3.1291     5.7613 H       
  54 H54           -8.5857     2.8433     4.0024 H       
@<TRIPOS>BOND
   1    1    2 1
   2    1    8 2
   3    1    9 am
   4    2    3 ar
   5    2    7 ar
   6    3    4 ar
   7    3   32 1
   8    4    5 ar
   9    4   33 1
  10    5    6 ar
  11    5   10 1
  12    6    7 ar
  13    7   34 1
  14    9   14 1
  15    9   35 1
  16   10   11 1
  17   10   12 1
  18   10   13 1
  19   14   15 1
  20   14   19 1
  21   14   36 1
  22   15   16 1
  23   15   37 1
  24   15   38 1
  25   16   17 1
  26   16   39 1
  27   16   40 1
  28   17   18 1
  29   17   20 1
  30   17   41 1
  31   18   19 1
  32   18   42 1
  33   18   43 1
  34   19   44 1
  35   19   45 1
  36   20   21 1
  37   20   24 1
  38   21   22 2
  39   22   23 1
  40   23   24 2
  41   23   25 1
  42   24   46 1
  43   25   26 2
  44   25   27 am
  45   27   28 1
  46   27   31 1
  47   28   29 1
  48   28   47 1
  49   28   48 1
  50   29   30 1
  51   29   49 1
  52   29   50 1
  53   30   31 1
  54   30   51 1
  55   30   52 1
  56   31   53 1
  57   31   54 1

#	End of record

