#	Name: ASD01816361
#	Creating user name:	WinNT
#	Creation time:	15. 06. 2019 19:35

#	Modifying user name:	WinNT
#	Modification time:	15. 06. 2019 19:35

#	Program:	/corina/corina34_cracker 3.40 0067  02.08.2006

@<TRIPOS>MOLECULE
ASD01816361
  54   60    0    0    0
SMALL
NO_CHARGES


@<TRIPOS>ATOM
   1 C1            -0.0167     1.3813     0.0096 C.ar    
   2 C2             0.0021    -0.0041     0.0020 C.ar    
   3 C3             1.1984    -0.6909    -0.0131 C.ar    
   4 C4             2.4015     0.0059    -0.0208 C.ar    
   5 C5             2.3790     1.4106    -0.0130 C.ar    
   6 C6             1.1663     2.0916     0.0022 C.ar    
   7 N7             3.6053    -0.6772    -0.0354 N.pl3   
   8 C8             4.7970    -0.0586    -0.0434 C.2     
   9 C9             4.9000     1.3103    -0.0375 C.2     
  10 C10            3.6670     2.1301    -0.0215 C.2     
  11 C11            5.9971     2.2729    -0.0438 C.2     
  12 N12            5.4246     3.4960    -0.0327 N.am    
  13 N13            4.0323     3.3799    -0.0194 N.2     
  14 O14            7.1914     2.0229    -0.0564 O.2     
  15 C15            3.5779    -2.1419    -0.0420 C.3     
  16 C16            3.5550    -2.6375    -1.4650 C.ar    
  17 C17            4.7426    -2.8868    -2.1280 C.ar    
  18 C18            4.7248    -3.3407    -3.4324 C.ar    
  19 C19            3.5129    -3.5470    -4.0776 C.ar    
  20 C20            2.3222    -3.2963    -3.4092 C.ar    
  21 C21            2.3464    -2.8475    -2.1031 C.ar    
  22 N22            3.4916    -4.0071    -5.4017 N.pl3   
  23 C23            2.3865    -4.2484    -6.1427 C.2     
  24 C24            2.7927    -4.6778    -7.3599 C.2     
  25 C25            4.1917    -4.7001    -7.3641 C.2     
  26 N26            4.6115    -4.2927    -6.1933 N.2     
  27 C27            6.1268     4.7088    -0.0334 C.ar    
  28 C28            5.4347     5.9033    -0.0156 C.ar    
  29 C29            7.5224     4.7030    -0.0462 C.ar    
  30 C30            8.2250     5.8728    -0.0467 C.ar    
  31 C31            7.5514     7.0922    -0.0338 C.ar    
  32 C32            6.1437     7.1097    -0.0160 C.ar    
  33 N33            7.9620     8.4011    -0.0303 N.pl3   
  34 N34            6.8376     9.2327    -0.0154 N.2     
  35 C35            5.7506     8.5152    -0.0059 C.2     
  36 H36           -0.9602     1.9068     0.0169 H       
  37 H37           -0.9289    -0.5516     0.0083 H       
  38 H38            1.2004    -1.7709    -0.0185 H       
  39 H39            1.1506     3.1715     0.0081 H       
  40 H40            5.6983    -0.6536    -0.0544 H       
  41 H41            4.4658    -2.5242     0.4616 H       
  42 H42            2.6862    -2.4910     0.4787 H       
  43 H43            5.6850    -2.7261    -1.6255 H       
  44 H44            5.6527    -3.5345    -3.9500 H       
  45 H45            1.3780    -3.4555    -3.9087 H       
  46 H46            1.4204    -2.6523    -1.5826 H       
  47 H47            1.3635    -4.1217    -5.8206 H       
  48 H48            2.1504    -4.9544    -8.1830 H       
  49 H49            4.8176    -4.9979    -8.1924 H       
  50 H50            4.3548     5.9065    -0.0019 H       
  51 H51            8.0523     3.7620    -0.0555 H       
  52 H52            9.3048     5.8534    -0.0567 H       
  53 H53            8.8843     8.7016    -0.0368 H       
  54 H54            4.7389     8.8930     0.0058 H       
@<TRIPOS>BOND
   1    1    2 ar
   2    1    6 ar
   3    1   36 1
   4    2    3 ar
   5    2   37 1
   6    3    4 ar
   7    3   38 1
   8    4    5 ar
   9    4    7 1
  10    5    6 ar
  11    5   10 1
  12    6   39 1
  13    7    8 1
  14    7   15 1
  15    8    9 2
  16    8   40 1
  17    9   10 1
  18    9   11 1
  19   10   13 2
  20   11   12 am
  21   11   14 2
  22   12   13 1
  23   12   27 1
  24   15   16 1
  25   15   41 1
  26   15   42 1
  27   16   17 ar
  28   16   21 ar
  29   17   18 ar
  30   17   43 1
  31   18   19 ar
  32   18   44 1
  33   19   20 ar
  34   19   22 1
  35   20   21 ar
  36   20   45 1
  37   21   46 1
  38   22   23 1
  39   22   26 1
  40   23   24 2
  41   23   47 1
  42   24   25 1
  43   24   48 1
  44   25   26 2
  45   25   49 1
  46   27   29 ar
  47   27   28 ar
  48   28   32 ar
  49   28   50 1
  50   29   30 ar
  51   29   51 1
  52   30   31 ar
  53   30   52 1
  54   31   32 ar
  55   31   33 1
  56   32   35 1
  57   33   34 1
  58   33   53 1
  59   34   35 2
  60   35   54 1

#	End of record

