#	Name: ASD01911959
#	Creating user name:	WinNT
#	Creation time:	15. 06. 2019 19:58

#	Modifying user name:	WinNT
#	Modification time:	15. 06. 2019 19:58

#	Program:	/corina/corina34_cracker 3.40 0067  02.08.2006

@<TRIPOS>MOLECULE
ASD01911959
  35   37    0    0    0
SMALL
NO_CHARGES


@<TRIPOS>ATOM
   1 C1            -1.3597     1.1650     1.7765 C.ar    
   2 C2            -1.1988    -0.2025     1.5781 C.ar    
   3 C3            -1.1339    -1.0277     2.6962 C.ar    
   4 N4            -1.2268    -0.4866     3.8997 N.ar    
   5 C5            -1.3788     0.8143     4.0465 C.ar    
   6 N6            -1.4447     1.6287     3.0125 N.ar    
   7 O7            -1.1078    -0.7191     0.3243 O.3     
   8 C8            -0.9466    -2.0623     0.1979 C.ar    
   9 C9             0.4677    -3.9541    -0.2345 C.ar    
  10 C10           -0.6118    -4.8026    -0.0616 C.ar    
  11 C11           -1.8642    -4.2817     0.2365 C.ar    
  12 C12           -2.0309    -2.9095     0.3660 C.ar    
  13 N13           -2.9551    -5.1387     0.4112 N.am    
  14 C14           -2.7701    -6.3669     0.9344 C.2     
  15 C15           -3.9061    -7.3132     1.0222 C.ar    
  16 O16           -1.6712    -6.6979     1.3341 O.2     
  17 C17           -3.7079    -8.5797     1.5635 C.ar    
  18 C18           -4.7796    -9.4579     1.6407 C.ar    
  19 C19           -6.0127    -9.0394     1.1738 C.ar    
  20 C20           -6.1418    -7.7578     0.6437 C.ar    
  21 N21           -5.1061    -6.9430     0.5883 N.ar    
  22 C22            0.3024    -2.5862    -0.1051 C.ar    
  23 O23           -7.3482    -7.3411     0.1836 O.3     
  24 F24            1.6856    -4.4621    -0.5240 F       
  25 H25           -1.4100     1.8387     0.9339 H       
  26 H26           -1.0098    -2.0946     2.5833 H       
  27 H27           -1.4515     1.2247     5.0428 H       
  28 H28           -0.4812    -5.8699    -0.1629 H       
  29 H29           -3.0041    -2.5026     0.5977 H       
  30 H30           -3.8450    -4.8493     0.1558 H       
  31 H31           -2.7319    -8.8756     1.9189 H       
  32 H32           -4.6536   -10.4469     2.0559 H       
  33 H33           -6.8662    -9.6995     1.2196 H       
  34 H34            1.1461    -1.9257    -0.2403 H       
  35 H35           -7.8961    -6.9083     0.8526 H       
@<TRIPOS>BOND
   1    1    2 ar
   2    1    6 ar
   3    1   25 1
   4    2    3 ar
   5    2    7 1
   6    3    4 ar
   7    3   26 1
   8    4    5 ar
   9    5    6 ar
  10    5   27 1
  11    7    8 1
  12    8   22 ar
  13    8   12 ar
  14    9   10 ar
  15    9   22 ar
  16    9   24 1
  17   10   11 ar
  18   10   28 1
  19   11   12 ar
  20   11   13 1
  21   12   29 1
  22   13   14 am
  23   13   30 1
  24   14   15 1
  25   14   16 2
  26   15   17 ar
  27   15   21 ar
  28   17   18 ar
  29   17   31 1
  30   18   19 ar
  31   18   32 1
  32   19   20 ar
  33   19   33 1
  34   20   21 ar
  35   20   23 1
  36   22   34 1
  37   23   35 1

#	End of record

