#	Name: ASD03540535
#	Creating user name:	WinNT
#	Creation time:	15. 06. 2019 20:43

#	Modifying user name:	WinNT
#	Modification time:	15. 06. 2019 20:43

#	Program:	/corina/corina34_cracker 3.40 0067  02.08.2006

@<TRIPOS>MOLECULE
ASD03540535
  64   67    0    0    0
SMALL
NO_CHARGES


@<TRIPOS>ATOM
   1 C1             2.7332    -8.7012    -2.5547 C.2     
   2 C2             2.0476    -7.5675    -1.9050 C.ar    
   3 C3             2.7826    -6.4648    -1.4563 C.ar    
   4 C4             2.1317    -5.4070    -0.8486 C.ar    
   5 C5             0.7594    -5.4386    -0.6849 C.ar    
   6 C6             0.0271    -6.5272    -1.1265 C.ar    
   7 C7             0.6607    -7.5870    -1.7400 C.ar    
   8 O8             3.9390    -8.6787    -2.7011 O.2     
   9 O9             2.0226    -9.7637    -2.9806 O.3     
  10 C10            0.0568    -4.2820    -0.0216 C.3     
  11 N11           -3.3777    -4.7441     1.2280 N.am    
  12 C12           -2.3019    -4.3317     0.5365 C.2     
  13 N13           -1.0621    -4.7847     0.7794 N.am    
  14 C14           -0.8270    -5.6959     1.7485 C.2     
  15 C15           -1.9718    -6.1844     2.5391 C.ar    
  16 C16           -1.8120    -7.1212     3.5522 C.ar    
  17 C17           -2.9297    -7.5484     4.2679 C.ar    
  18 C18           -4.1965    -7.0348     3.9636 C.ar    
  19 C19           -4.3532    -6.1133     2.9670 C.ar    
  20 C20           -3.2512    -5.6760     2.2433 C.ar    
  21 O21            0.2986    -6.1028     1.9628 O.2     
  22 O22           -2.4584    -3.5121    -0.3476 O.2     
  23 C23            1.0406    -3.5401     0.8854 C.3     
  24 C24           -2.7777    -8.5440     5.3475 C.2     
  25 N25           -3.8576    -8.9575     6.0399 N.am    
  26 O26           -1.6783    -8.9907     5.6121 O.2     
  27 C27           -3.7067    -9.9453     7.1112 C.3     
  28 C28           -5.0540   -10.2343     7.7214 C.ar    
  29 C29           -5.8397   -11.2504     7.2097 C.ar    
  30 C30           -7.0752   -11.5173     7.7673 C.ar    
  31 C31           -7.5272   -10.7648     8.8416 C.ar    
  32 C32           -6.7369    -9.7458     9.3531 C.ar    
  33 C33           -5.4998    -9.4866     8.7956 C.ar    
  34 O34           -8.7423   -11.0251     9.3916 O.3     
  35 C35           -9.1430   -10.2103    10.4951 C.3     
  36 F36            4.1238    -6.4339    -1.6158 F       
  37 C37            2.7630   -10.8423    -3.6105 C.3     
  38 C38            1.7944   -11.9519    -4.0246 C.3     
  39 H39            2.6966    -4.5546    -0.5008 H       
  40 H40           -1.0446    -6.5443    -0.9942 H       
  41 H41            0.0863    -8.4327    -2.0883 H       
  42 H42           -0.3196    -3.6000    -0.7841 H       
  43 H43           -4.2522    -4.3823     1.0153 H       
  44 H44           -0.8329    -7.5145     3.7827 H       
  45 H45           -5.0579    -7.3705     4.5219 H       
  46 H46           -5.3353    -5.7248     2.7414 H       
  47 H47            1.8731    -3.1661     0.2895 H       
  48 H48            0.5324    -2.7036     1.3651 H       
  49 H49            1.4170    -4.2221     1.6478 H       
  50 H50           -4.7347    -8.6011     5.8288 H       
  51 H51           -3.2887   -10.8648     6.7013 H       
  52 H52           -3.0380    -9.5518     7.8767 H       
  53 H53           -5.4875   -11.8357     6.3732 H       
  54 H54           -7.6887   -12.3109     7.3671 H       
  55 H55           -7.0866    -9.1586    10.1894 H       
  56 H56           -4.8821    -8.6966     9.1965 H       
  57 H57           -8.4244   -10.3198    11.3073 H       
  58 H58           -9.1808    -9.1671    10.1815 H       
  59 H59          -10.1293   -10.5227    10.8381 H       
  60 H60            3.2786   -10.4623    -4.4925 H       
  61 H61            3.4932   -11.2414    -2.9065 H       
  62 H62            1.2788   -12.3319    -3.1427 H       
  63 H63            1.0642   -11.5528    -4.7286 H       
  64 H64            2.3502   -12.7615    -4.4975 H       
@<TRIPOS>BOND
   1    1    2 1
   2    1    8 2
   3    1    9 1
   4    2    3 ar
   5    2    7 ar
   6    3    4 ar
   7    3   36 1
   8    4    5 ar
   9    4   39 1
  10    5    6 ar
  11    5   10 1
  12    6    7 ar
  13    6   40 1
  14    7   41 1
  15    9   37 1
  16   10   13 1
  17   10   23 1
  18   10   42 1
  19   11   12 am
  20   11   20 1
  21   11   43 1
  22   12   13 am
  23   12   22 2
  24   13   14 am
  25   14   15 1
  26   14   21 2
  27   15   16 ar
  28   15   20 ar
  29   16   17 ar
  30   16   44 1
  31   17   18 ar
  32   17   24 1
  33   18   19 ar
  34   18   45 1
  35   19   20 ar
  36   19   46 1
  37   23   47 1
  38   23   48 1
  39   23   49 1
  40   24   25 am
  41   24   26 2
  42   25   27 1
  43   25   50 1
  44   27   28 1
  45   27   51 1
  46   27   52 1
  47   28   29 ar
  48   28   33 ar
  49   29   30 ar
  50   29   53 1
  51   30   31 ar
  52   30   54 1
  53   31   32 ar
  54   31   34 1
  55   32   33 ar
  56   32   55 1
  57   33   56 1
  58   34   35 1
  59   35   57 1
  60   35   58 1
  61   35   59 1
  62   37   38 1
  63   37   60 1
  64   37   61 1
  65   38   62 1
  66   38   63 1
  67   38   64 1

#	End of record

