#	Name: ASD03090095
#	Creating user name:	WinNT
#	Creation time:	15. 06. 2019 20:28

#	Modifying user name:	WinNT
#	Modification time:	15. 06. 2019 20:28

#	Program:	/corina/corina34_cracker 3.40 0067  02.08.2006

@<TRIPOS>MOLECULE
ASD03090095
  41   42    0    0    0
SMALL
NO_CHARGES


@<TRIPOS>ATOM
   1 C1            -0.0380     1.4371     0.0369 C.2     
   2 C2            -0.0253    -0.0375     0.0544 C.ar    
   3 C3             1.1907    -0.7278     0.0433 C.ar    
   4 C4             1.1994    -2.0986     0.0600 C.ar    
   5 C5            -0.0015    -2.8038     0.0882 C.ar    
   6 C6            -1.2144    -2.1188     0.0994 C.ar    
   7 C7            -1.2292    -0.7481     0.0881 C.ar    
   8 O8             1.0098     2.0539     0.0128 O.2     
   9 N9            -1.2108     2.1010     0.0421 N.am    
  10 C10           -1.2234     3.5659     0.0248 C.3     
  11 C11           -2.6484     4.0562     0.0348 C.ar    
  12 C12           -3.2873     4.2949     1.2378 C.ar    
  13 C13           -4.5931     4.7442     1.2506 C.ar    
  14 C14           -5.2648     4.9563     0.0533 C.ar    
  15 C15           -4.6200     4.7155    -1.1533 C.ar    
  16 C16           -3.3122     4.2717    -1.1590 C.ar    
  17 N17           -6.5857     5.4103     0.0627 N.pl3   
  18 C18           -7.3067     5.5401     1.3314 C.3     
  19 C19           -7.2501     5.7567    -1.1962 C.3     
  20 S20            0.0136    -4.5656     0.1091 S.3     
  21 C21           -1.7501    -4.9884     0.1431 C.3     
  22 F22           -2.3387    -4.4422     1.2887 F       
  23 F23           -2.3761    -4.4696    -0.9954 F       
  24 H24            2.1222    -0.1816     0.0211 H       
  25 H25            2.1383    -2.6323     0.0511 H       
  26 H26           -2.1440    -2.6682     0.1208 H       
  27 H27           -2.1698    -0.2175     0.1009 H       
  28 H28           -2.0466     1.6090     0.0574 H       
  29 H29           -0.7028     3.9442     0.9045 H       
  30 H30           -0.7227     3.9229    -0.8752 H       
  31 H31           -2.7646     4.1295     2.1683 H       
  32 H32           -5.0917     4.9302     2.1905 H       
  33 H33           -5.1394     4.8794    -2.0859 H       
  34 H34           -2.8088     4.0888    -2.0968 H       
  35 H35           -7.1522     6.5402     1.7364 H       
  36 H36           -8.3711     5.3768     1.1627 H       
  37 H37           -6.9332     4.7998     2.0389 H       
  38 H38           -6.5345     5.6883    -2.0155 H       
  39 H39           -8.0737     5.0653    -1.3745 H       
  40 H40           -7.6365     6.7741    -1.1352 H       
  41 H41           -1.8636    -6.0724     0.1580 H       
@<TRIPOS>BOND
   1    1    2 1
   2    1    8 2
   3    1    9 am
   4    2    3 ar
   5    2    7 ar
   6    3    4 ar
   7    3   24 1
   8    4    5 ar
   9    4   25 1
  10    5    6 ar
  11    5   20 1
  12    6    7 ar
  13    6   26 1
  14    7   27 1
  15    9   10 1
  16    9   28 1
  17   10   11 1
  18   10   29 1
  19   10   30 1
  20   11   12 ar
  21   11   16 ar
  22   12   13 ar
  23   12   31 1
  24   13   14 ar
  25   13   32 1
  26   14   15 ar
  27   14   17 1
  28   15   16 ar
  29   15   33 1
  30   16   34 1
  31   17   18 1
  32   17   19 1
  33   18   35 1
  34   18   36 1
  35   18   37 1
  36   19   38 1
  37   19   39 1
  38   19   40 1
  39   20   21 1
  40   21   22 1
  41   21   23 1
  42   21   41 1

#	End of record

