#	Name: ASD05940088
#	Creating user name:	WinNT
#	Creation time:	15. 06. 2019 21:04

#	Modifying user name:	WinNT
#	Modification time:	15. 06. 2019 21:04

#	Program:	/corina/corina34_cracker 3.40 0067  02.08.2006

@<TRIPOS>MOLECULE
ASD05940088
  63   66    0    0    0
SMALL
NO_CHARGES


@<TRIPOS>ATOM
   1 N1             0.2069     1.5599     0.6879 N.ar    
   2 C2             0.1233     0.2412     0.6364 C.ar    
   3 N3             1.1810    -0.5236     0.4158 N.ar    
   4 C4             2.3820     0.0188     0.2362 C.ar    
   5 C5             2.5070     1.4069     0.2688 C.ar    
   6 C6             1.3745     2.1785     0.5094 C.ar    
   7 N7             1.4582     3.5633     0.5620 N.pl3   
   8 O8            -1.0846    -0.3466     0.8158 O.3     
   9 C9            -2.1980     0.5176     1.0514 C.3     
  10 C10           -3.4656    -0.3206     1.2286 C.3     
  11 N11            3.5016    -0.7711     0.0422 N.3     
  12 C12            3.9179    -0.8145    -1.3627 C.3     
  13 C13            3.8786     0.5827    -1.9752 C.3     
  14 C14            4.4760     1.5904    -1.0299 C.2     
  15 N15            3.7613     1.9995     0.0414 N.am    
  16 O16            5.5889     2.0309    -1.2278 O.2     
  17 C17            3.2884    -2.1253     0.5702 C.3     
  18 C18            4.4876    -2.9819     0.2550 C.ar    
  19 C19            5.5908    -2.9588     1.0869 C.ar    
  20 C20            6.6917    -3.7457     0.7976 C.ar    
  21 C21            6.6870    -4.5551    -0.3241 C.ar    
  22 C22            5.5828    -4.5774    -1.1555 C.ar    
  23 C23            4.4815    -3.7951    -0.8632 C.ar    
  24 C24           -4.6577     0.6047     1.4809 C.3     
  25 C25           -5.9253    -0.2336     1.6581 C.3     
  26 N26            5.0341    -6.7781    -2.0275 N.3     
  27 C27            4.7910    -7.5872    -3.2359 C.3     
  28 C28            5.5907    -8.8974    -3.0774 C.3     
  29 C29            5.7867    -9.0037    -1.5421 C.3     
  30 C30            5.9628    -7.5167    -1.1455 C.3     
  31 C31            5.5776    -5.4591    -2.3776 C.3     
  32 Cl32           8.0782    -3.7168     1.8419 Cl      
  33 H33            2.3129     4.0028     0.4304 H       
  34 H34            0.6622     4.0913     0.7304 H       
  35 H35           -2.0197     1.1020     1.9541 H       
  36 H36           -2.3225     1.1895     0.2023 H       
  37 H37           -3.6439    -0.9050     0.3260 H       
  38 H38           -3.3411    -0.9926     2.0778 H       
  39 H39            4.9332    -1.2062    -1.4251 H       
  40 H40            3.2456    -1.4694    -1.9171 H       
  41 H41            4.4451     0.5832    -2.9065 H       
  42 H42            2.8440     0.8548    -2.1842 H       
  43 H43            4.1042     2.6838     0.6373 H       
  44 H44            3.1504    -2.0766     1.6503 H       
  45 H45            2.4008    -2.5592     0.1097 H       
  46 H46            5.5940    -2.3264     1.9624 H       
  47 H47            7.5461    -5.1693    -0.5506 H       
  48 H48            3.6189    -3.8130    -1.5128 H       
  49 H49           -4.4794     1.1890     2.3836 H       
  50 H50           -4.7822     1.2766     0.6318 H       
  51 H51           -6.7746     0.4256     1.8379 H       
  52 H52           -6.1036    -0.8179     0.7555 H       
  53 H53           -5.8009    -0.9055     2.5073 H       
  54 H54            3.7278    -7.8102    -3.3252 H       
  55 H55            5.1344    -7.0477    -4.1186 H       
  56 H56            5.0185    -9.7460    -3.4525 H       
  57 H57            6.5528    -8.8255    -3.5847 H       
  58 H58            4.9060    -9.4335    -1.0649 H       
  59 H59            6.6798    -9.5804    -1.3015 H       
  60 H60            6.9895    -7.1959    -1.3218 H       
  61 H61            5.6922    -7.3682    -0.1001 H       
  62 H62            4.9583    -5.0045    -3.1509 H       
  63 H63            6.5964    -5.5726    -2.7481 H       
@<TRIPOS>BOND
   1    1    2 ar
   2    1    6 ar
   3    2    3 ar
   4    2    8 1
   5    3    4 ar
   6    4    5 ar
   7    4   11 1
   8    5    6 ar
   9    5   15 1
  10    6    7 1
  11    7   33 1
  12    7   34 1
  13    8    9 1
  14    9   10 1
  15    9   35 1
  16    9   36 1
  17   10   24 1
  18   10   37 1
  19   10   38 1
  20   11   12 1
  21   11   17 1
  22   12   13 1
  23   12   39 1
  24   12   40 1
  25   13   14 1
  26   13   41 1
  27   13   42 1
  28   14   15 am
  29   14   16 2
  30   15   43 1
  31   17   18 1
  32   17   44 1
  33   17   45 1
  34   18   19 ar
  35   18   23 ar
  36   19   20 ar
  37   19   46 1
  38   20   21 ar
  39   20   32 1
  40   21   22 ar
  41   21   47 1
  42   22   23 ar
  43   22   31 1
  44   23   48 1
  45   24   25 1
  46   24   49 1
  47   24   50 1
  48   25   51 1
  49   25   52 1
  50   25   53 1
  51   26   27 1
  52   26   31 1
  53   26   30 1
  54   27   28 1
  55   27   54 1
  56   27   55 1
  57   28   29 1
  58   28   56 1
  59   28   57 1
  60   29   30 1
  61   29   58 1
  62   29   59 1
  63   30   60 1
  64   30   61 1
  65   31   62 1
  66   31   63 1

#	End of record

