#	Name: ASD00310509
#	Creating user name:	WinNT
#	Creation time:	15. 06. 2019 18:34

#	Modifying user name:	WinNT
#	Modification time:	15. 06. 2019 18:34

#	Program:	/corina/corina34_cracker 3.40 0067  02.08.2006

@<TRIPOS>MOLECULE
ASD00310509
  35   37    0    0    0
SMALL
NO_CHARGES


@<TRIPOS>ATOM
   1 N1            -0.0153     1.2794     0.0091 N.pl3   
   2 N2             0.0021    -0.0041     0.0020 N.2     
   3 C3             1.2292    -0.4800    -0.0122 C.2     
   4 C4             2.1244     0.6858    -0.0145 C.ar    
   5 C5             3.5014     0.8764    -0.0266 C.ar    
   6 C6             4.0088     2.1687    -0.0245 C.ar    
   7 C7             3.1375     3.2656    -0.0099 C.ar    
   8 C8             1.7847     3.0822     0.0020 C.ar    
   9 C9             1.2550     1.7947    -0.0003 C.ar    
  10 C10            1.6261    -1.8977    -0.0232 C.2     
  11 O11            2.8035    -2.1990    -0.0357 O.2     
  12 O12            0.6838    -2.8614    -0.0195 O.3     
  13 C13            5.4759     2.3883    -0.0374 C.ar    
  14 C14            6.0430     3.2635    -0.9622 C.ar    
  15 C15            7.4072     3.4656    -0.9717 C.ar    
  16 C16            8.2155     2.7984    -0.0613 C.ar    
  17 C17            7.6537     1.9257     0.8607 C.ar    
  18 C18            6.2895     1.7243     0.8791 C.ar    
  19 O19            9.5593     2.9995    -0.0731 O.3     
  20 C20           10.3313     2.2809     0.8911 C.3     
  21 C21           11.8108     2.6337     0.7252 C.3     
  22 Cl22           3.7853     4.8762    -0.0063 Cl      
  23 H23           -0.8235     1.8157     0.0160 H       
  24 H24            4.1695     0.0280    -0.0372 H       
  25 H25            1.1246     3.9369     0.0133 H       
  26 H26            0.9928    -3.7776    -0.0270 H       
  27 H27            5.4147     3.7826    -1.6709 H       
  28 H28            7.8471     4.1433    -1.6883 H       
  29 H29            8.2851     1.4078     1.5674 H       
  30 H30            5.8524     1.0492     1.6000 H       
  31 H31           10.0033     2.5523     1.8945 H       
  32 H32           10.1941     1.2100     0.7412 H       
  33 H33           12.3997     2.0855     1.4607 H       
  34 H34           12.1388     2.3623    -0.2782 H       
  35 H35           11.9480     3.7046     0.8751 H       
@<TRIPOS>BOND
   1    1    2 1
   2    1    9 1
   3    1   23 1
   4    2    3 2
   5    3    4 1
   6    3   10 1
   7    4    5 ar
   8    4    9 ar
   9    5    6 ar
  10    5   24 1
  11    6    7 ar
  12    6   13 1
  13    7    8 ar
  14    7   22 1
  15    8    9 ar
  16    8   25 1
  17   10   11 2
  18   10   12 1
  19   12   26 1
  20   13   14 ar
  21   13   18 ar
  22   14   15 ar
  23   14   27 1
  24   15   16 ar
  25   15   28 1
  26   16   17 ar
  27   16   19 1
  28   17   18 ar
  29   17   29 1
  30   18   30 1
  31   19   20 1
  32   20   21 1
  33   20   31 1
  34   20   32 1
  35   21   33 1
  36   21   34 1
  37   21   35 1

#	End of record

