#	Name: ASD01911628
#	Creating user name:	WinNT
#	Creation time:	15. 06. 2019 19:58

#	Modifying user name:	WinNT
#	Modification time:	15. 06. 2019 19:58

#	Program:	/corina/corina34_cracker 3.40 0067  02.08.2006

@<TRIPOS>MOLECULE
ASD01911628
  34   36    0    0    0
SMALL
NO_CHARGES


@<TRIPOS>ATOM
   1 O1             0.0031    -0.0027    -0.0354 O.2     
   2 C2            -0.0141     1.2140    -0.0015 C.2     
   3 C3             1.2440     1.9641     0.0123 C.2     
   4 C4             2.5024     1.4253    -0.0098 C.2     
   5 S5             1.4035     3.7189     0.0526 S.3     
   6 C6             3.1574     3.5581     0.0438 C.2     
   7 N7             3.4782     2.2885     0.0088 N.2     
   8 C8             4.0880     4.6462     0.0664 C.1     
   9 C9             4.8510     5.5383     0.0849 C.1     
  10 C10            5.7817     6.6264     0.1075 C.ar    
  11 C11            7.1570     6.3749     0.0977 C.ar    
  12 C12            7.5819     8.7312     0.1507 C.ar    
  13 C13            6.2220     8.9882     0.1548 C.ar    
  14 C14            5.3196     7.9458     0.1336 C.ar    
  15 N15           -1.1907     1.8711     0.0179 N.am    
  16 C16            8.0470     7.4281     0.1191 C.ar    
  17 C17           -2.3907     1.1598    -0.0859 C.ar    
  18 C18           -3.5264     1.7800    -0.5941 C.ar    
  19 C19           -4.7099     1.0740    -0.6954 C.ar    
  20 C20           -4.7648    -0.2478    -0.2920 C.ar    
  21 C21           -3.6369    -0.8669     0.2142 C.ar    
  22 C22           -2.4489    -0.1687     0.3130 C.ar    
  23 Cl23          -3.4580     3.4392    -1.1000 Cl      
  24 H24            2.6743     0.3595    -0.0401 H       
  25 H25            7.5215     5.3586     0.0738 H       
  26 H26            8.2838     9.5518     0.1670 H       
  27 H27            5.8666    10.0078     0.1795 H       
  28 H28            4.2587     8.1479     0.1369 H       
  29 H29           -1.2053     2.8371     0.1037 H       
  30 H30            9.1096     7.2355     0.1116 H       
  31 H31           -5.5929     1.5548    -1.0897 H       
  32 H32           -5.6909    -0.7976    -0.3722 H       
  33 H33           -3.6836    -1.8990     0.5286 H       
  34 H34           -1.5684    -0.6534     0.7082 H       
@<TRIPOS>BOND
   1    1    2 2
   2    2    3 1
   3    2   15 am
   4    3    4 2
   5    3    5 1
   6    4    7 1
   7    4   24 1
   8    5    6 1
   9    6    7 2
  10    6    8 1
  11    8    9 3
  12    9   10 1
  13   10   11 ar
  14   10   14 ar
  15   11   16 ar
  16   11   25 1
  17   12   13 ar
  18   12   16 ar
  19   12   26 1
  20   13   14 ar
  21   13   27 1
  22   14   28 1
  23   15   17 1
  24   15   29 1
  25   16   30 1
  26   17   18 ar
  27   17   22 ar
  28   18   19 ar
  29   18   23 1
  30   19   20 ar
  31   19   31 1
  32   20   21 ar
  33   20   32 1
  34   21   22 ar
  35   21   33 1
  36   22   34 1

#	End of record

