#	Name: ASD03930036
#	Creating user name:	WinNT
#	Creation time:	15. 06. 2019 20:47

#	Modifying user name:	WinNT
#	Modification time:	15. 06. 2019 20:47

#	Program:	/corina/corina34_cracker 3.40 0067  02.08.2006

@<TRIPOS>MOLECULE
ASD03930036
  25   27    0    0    0
SMALL
NO_CHARGES


@<TRIPOS>ATOM
   1 C1            -0.0164     1.3581     0.0095 C.ar    
   2 C2             0.0021    -0.0041     0.0020 C.ar    
   3 C3             1.2112    -0.7159    -0.0014 C.ar    
   4 C4             2.4202    -0.0305     0.0002 C.ar    
   5 C5             2.3881     1.3767    -0.0155 C.ar    
   6 C6             1.1885     2.0748     0.0019 C.ar    
   7 C7             3.7294    -0.7645     0.0488 C.3     
   8 N8             4.8153    -0.0467    -0.6251 N.am    
   9 S9             5.1735     1.5138    -0.1401 S.o2    
  10 C10            3.5595     2.2672    -0.0706 C.2     
  11 S11            1.5205     3.8016     0.0059 S.3     
  12 C12            3.2554     3.5424    -0.0564 C.2     
  13 O13            5.6586     1.4376     1.1934 O.2     
  14 O14            5.8796     2.1327    -1.2067 O.2     
  15 C15            5.5739    -0.6848    -1.7038 C.3     
  16 C16            1.1995    -2.1478    -0.0061 C.1     
  17 N17            1.1902    -3.2838    -0.0099 N.1     
  18 H18           -0.9588     1.8857     0.0168 H       
  19 H19           -0.9319    -0.5464    -0.0010 H       
  20 H20            4.0058    -0.9198     1.0916 H       
  21 H21            3.6039    -1.7372    -0.4268 H       
  22 H22            3.9851     4.3382    -0.0796 H       
  23 H23            5.0926    -0.4760    -2.6592 H       
  24 H24            6.5903    -0.2912    -1.7153 H       
  25 H25            5.6032    -1.7620    -1.5395 H       
@<TRIPOS>BOND
   1    1    2 ar
   2    1    6 ar
   3    1   18 1
   4    2    3 ar
   5    2   19 1
   6    3    4 ar
   7    3   16 1
   8    4    5 ar
   9    4    7 1
  10    5    6 ar
  11    5   10 1
  12    6   11 1
  13    7    8 1
  14    7   20 1
  15    7   21 1
  16    8    9 am
  17    8   15 1
  18    9   10 1
  19    9   13 2
  20    9   14 2
  21   10   12 2
  22   11   12 1
  23   12   22 1
  24   15   23 1
  25   15   24 1
  26   15   25 1
  27   16   17 3

#	End of record

