#	Name: ASD05740200
#	Creating user name:	WinNT
#	Creation time:	15. 06. 2019 21:03

#	Modifying user name:	WinNT
#	Modification time:	15. 06. 2019 21:03

#	Program:	/corina/corina34_cracker 3.40 0067  02.08.2006

@<TRIPOS>MOLECULE
ASD05740200
  58   62    0    0    0
SMALL
NO_CHARGES


@<TRIPOS>ATOM
   1 C1             0.9533    -0.8276    -0.0411 C.3     
   2 N2             0.0370    -0.1451     0.8832 N.3     
   3 C3            -1.2685    -0.6291     0.7436 C.ar    
   4 C4            -2.2889    -0.1113     1.5306 C.ar    
   5 C5            -3.5771    -0.5889     1.3929 C.ar    
   6 C6            -3.8523    -1.5872     0.4677 C.ar    
   7 C7            -2.8319    -2.1054    -0.3190 C.ar    
   8 C8            -1.5450    -1.6232    -0.1860 C.ar    
   9 N9            -5.1590    -2.0720     0.3283 N.pl3   
  10 C10           -6.2334    -1.2225     0.5064 C.ar    
  11 N11           -6.0003     0.0714     0.6975 N.ar    
  12 N12           -7.4577    -1.7281     0.4747 N.ar    
  13 C13           -8.5129    -0.9414     0.6420 C.ar    
  14 C14           -8.3033     0.4392     0.8533 C.ar    
  15 C15           -6.9916     0.9266     0.8729 C.ar    
  16 N16           -9.7918    -1.4348     0.6140 N.am    
  17 C17          -10.8502    -0.6228     0.7850 C.2     
  18 C18          -10.6974     0.7620     0.9988 C.2     
  19 C19           -9.4567     1.3145     1.0386 C.2     
  20 C20          -10.0085    -2.8669     0.3943 C.3     
  21 O21          -11.9723    -1.0974     0.7538 O.2     
  22 C22            0.5011    -0.2746     2.2715 C.3     
  23 C23            1.8985     0.3366     2.3987 C.3     
  24 N24            2.8147    -0.3458     1.4744 N.3     
  25 C25            2.3507    -0.2164     0.0860 C.3     
  26 C26          -10.0273    -3.5816     1.7209 C.ar    
  27 C27            4.1853     0.1622     1.6209 C.3     
  28 C28           -8.8513    -4.0725     2.2591 C.ar    
  29 C29          -11.2196    -3.7418     2.4037 C.ar    
  30 C30           -8.8691    -4.7286     3.4771 C.ar    
  31 C31          -10.0617    -4.8938     4.1560 C.ar    
  32 C32          -11.2362    -4.3980     3.6217 C.ar    
  33 Cl33          -7.3535    -3.8661     1.4060 Cl      
  34 Cl34         -12.6947    -3.1192     1.7329 Cl      
  35 H35            0.9964    -1.8882     0.2066 H       
  36 H36            0.5952    -0.7069    -1.0635 H       
  37 H37           -2.0748     0.6647     2.2506 H       
  38 H38           -4.3706    -0.1862     2.0049 H       
  39 H39           -3.0459    -2.8823    -1.0380 H       
  40 H40           -0.7514    -2.0262    -0.7978 H       
  41 H41           -5.3094    -3.0043     0.1068 H       
  42 H42           -6.7944     1.9765     1.0322 H       
  43 H43          -11.5691     1.3857     1.1317 H       
  44 H44           -9.3272     2.3741     1.2021 H       
  45 H45          -10.9619    -3.0166    -0.1125 H       
  46 H46           -9.2029    -3.2660    -0.2220 H       
  47 H47           -0.1868     0.2494     2.9352 H       
  48 H48            0.5390    -1.3289     2.5455 H       
  49 H49            1.8554     1.3973     2.1510 H       
  50 H50            2.2566     0.2159     3.4210 H       
  51 H51            3.0386    -0.7404    -0.5776 H       
  52 H52            2.3128     0.8379    -0.1879 H       
  53 H53            4.5283    -0.0070     2.6416 H       
  54 H54            4.8426    -0.3598     0.9255 H       
  55 H55            4.2019     1.2303     1.4044 H       
  56 H56           -7.9511    -5.1119     3.8973 H       
  57 H57          -10.0753    -5.4066     5.1064 H       
  58 H58          -12.1677    -4.5274     4.1526 H       
@<TRIPOS>BOND
   1    1    2 1
   2    1   25 1
   3    1   35 1
   4    1   36 1
   5    2    3 1
   6    2   22 1
   7    3    4 ar
   8    3    8 ar
   9    4    5 ar
  10    4   37 1
  11    5    6 ar
  12    5   38 1
  13    6    7 ar
  14    6    9 1
  15    7    8 ar
  16    7   39 1
  17    8   40 1
  18    9   10 1
  19    9   41 1
  20   10   11 ar
  21   10   12 ar
  22   11   15 ar
  23   12   13 ar
  24   13   14 ar
  25   13   16 1
  26   14   15 ar
  27   14   19 1
  28   15   42 1
  29   16   17 am
  30   16   20 1
  31   17   18 1
  32   17   21 2
  33   18   19 2
  34   18   43 1
  35   19   44 1
  36   20   26 1
  37   20   45 1
  38   20   46 1
  39   22   23 1
  40   22   47 1
  41   22   48 1
  42   23   24 1
  43   23   49 1
  44   23   50 1
  45   24   25 1
  46   24   27 1
  47   25   51 1
  48   25   52 1
  49   26   29 ar
  50   26   28 ar
  51   27   53 1
  52   27   54 1
  53   27   55 1
  54   28   30 ar
  55   28   33 1
  56   29   34 1
  57   29   32 ar
  58   30   31 ar
  59   30   56 1
  60   31   32 ar
  61   31   57 1
  62   32   58 1

#	End of record

