#	Name: ASD01209154
#	Creating user name:	WinNT
#	Creation time:	15. 06. 2019 19:11

#	Modifying user name:	WinNT
#	Modification time:	15. 06. 2019 19:11

#	Program:	/corina/corina34_cracker 3.40 0067  02.08.2006

@<TRIPOS>MOLECULE
ASD01209154
  56   57    0    0    0
SMALL
NO_CHARGES


@<TRIPOS>ATOM
   1 O1            -0.0173     1.4248     0.0099 O.3     
   2 O2             2.1367     2.0777     1.3686 O.3     
   3 C3             0.2785     6.2751    -9.5752 C.ar    
   4 C4             1.6420     6.4557    -9.6913 C.ar    
   5 C5             2.4692     6.2848    -8.5878 C.ar    
   6 C6             1.9316     5.9329    -7.3639 C.ar    
   7 C7             0.5523     5.7481    -7.2375 C.ar    
   8 C8            -0.2758     5.9217    -8.3543 C.ar    
   9 O9             3.8114     6.4645    -8.7122 O.3     
  10 C10            4.3002     6.8278   -10.0050 C.3     
  11 C11           -0.0288     5.3717    -5.9351 C.2     
  12 N12            0.7709     5.2052    -4.8632 N.am    
  13 O13           -1.2295     5.2117    -5.8286 O.2     
  14 C14            0.2237     4.8508    -3.6367 C.2     
  15 P15            1.3209     2.3199     0.0019 P.3     
  16 O16            2.1650     1.9351    -1.1513 O.2     
  17 C17            0.8726     4.0817    -0.1342 C.3     
  18 N18            0.9010     4.6662    -2.5468 N.2     
  19 S19           -1.4420     4.6015    -3.3430 S.3     
  20 C20           -1.0997     4.2310    -1.6550 C.2     
  21 C21            0.2177     4.3319    -1.4682 C.2     
  22 C22            0.0021    -0.0041     0.0020 C.3     
  23 C23           -1.4333    -0.5336     0.0129 C.3     
  24 C24            2.7182     0.8193     1.7153 C.3     
  25 C25            3.4161     0.9364     3.0718 C.3     
  26 O26           -1.6168     5.7448    -8.2413 O.3     
  27 C27           -2.3985     5.9387    -9.4217 C.3     
  28 C28           -3.8749     5.6972    -9.1011 C.3     
  29 F29           -4.2908     6.5965    -8.1134 F       
  30 F30           -4.6402     5.8871   -10.2567 F       
  31 F31           -4.0438     4.3872    -8.6399 F       
  32 C32            5.8212     6.9846    -9.9496 C.3     
  33 F33            6.4007     5.7739    -9.5552 F       
  34 F34            6.2997     7.3403   -11.2152 F       
  35 F35            6.1538     7.9830    -9.0278 F       
  36 H36           -0.3586     6.4137   -10.4362 H       
  37 H37            2.0683     6.7310   -10.6447 H       
  38 H38            2.5762     5.7998    -6.5077 H       
  39 H39            4.0411     6.0499   -10.7232 H       
  40 H40            3.8487     7.7711   -10.3123 H       
  41 H41            1.7287     5.3329    -4.9482 H       
  42 H42            0.1796     4.3431     0.6655 H       
  43 H43            1.7713     4.6928    -0.0503 H       
  44 H44           -1.8291     3.9718    -0.9020 H       
  45 H45            0.5123    -0.3556    -0.8948 H       
  46 H46            0.5293    -0.3651     0.8851 H       
  47 H47           -1.4185    -1.6235     0.0069 H       
  48 H48           -1.9435    -0.1821     0.9097 H       
  49 H49           -1.9605    -0.1726    -0.8702 H       
  50 H50            1.9368     0.0615     1.7729 H       
  51 H51            3.4459     0.5337     0.9558 H       
  52 H52            3.8596    -0.0235     3.3363 H       
  53 H53            4.1975     1.6941     3.0142 H       
  54 H54            2.6884     1.2220     3.8314 H       
  55 H55           -2.2670     6.9593    -9.7810 H       
  56 H56           -2.0745     5.2380   -10.1912 H       
@<TRIPOS>BOND
   1    1   22 1
   2    1   15 1
   3    2   24 1
   4    2   15 1
   5    3    4 ar
   6    3    8 ar
   7    3   36 1
   8    4    5 ar
   9    4   37 1
  10    5    6 ar
  11    5    9 1
  12    6    7 ar
  13    6   38 1
  14    7    8 ar
  15    7   11 1
  16    8   26 1
  17    9   10 1
  18   10   32 1
  19   10   39 1
  20   10   40 1
  21   11   12 am
  22   11   13 2
  23   12   14 1
  24   12   41 1
  25   14   18 2
  26   14   19 1
  27   15   16 2
  28   15   17 1
  29   17   21 1
  30   17   42 1
  31   17   43 1
  32   18   21 1
  33   19   20 1
  34   20   21 2
  35   20   44 1
  36   22   23 1
  37   22   45 1
  38   22   46 1
  39   23   47 1
  40   23   48 1
  41   23   49 1
  42   24   25 1
  43   24   50 1
  44   24   51 1
  45   25   52 1
  46   25   53 1
  47   25   54 1
  48   26   27 1
  49   27   28 1
  50   27   55 1
  51   27   56 1
  52   28   29 1
  53   28   30 1
  54   28   31 1
  55   32   33 1
  56   32   34 1
  57   32   35 1

#	End of record

