#	Name: ASD03330974
#	Creating user name:	WinNT
#	Creation time:	15. 06. 2019 20:38

#	Modifying user name:	WinNT
#	Modification time:	15. 06. 2019 20:38

#	Program:	/corina/corina34_cracker 3.40 0067  02.08.2006

@<TRIPOS>MOLECULE
ASD03330974
  57   59    0    0    0
SMALL
NO_CHARGES


@<TRIPOS>ATOM
   1 N1             0.4280     1.4214    -0.8377 N.pl3   
   2 C2             0.3490     0.0752    -0.6621 C.2     
   3 C3             1.5128    -0.8812    -0.6737 C.3     
   4 N4             2.5877    -0.3430     0.1745 N.3     
   5 C5             3.4833     0.5256    -0.5917 C.3     
   6 C6             2.7174     1.2806    -1.6743 C.3     
   7 C7             1.6641     2.1853    -1.0290 C.3     
   8 C8            -0.8433     1.9151    -0.7898 C.2     
   9 N9            -1.6714     0.9195    -0.5756 N.2     
  10 C10           -0.9665    -0.2302    -0.4890 C.2     
  11 C11           -1.5222    -1.5740    -0.2508 C.2     
  12 O12           -0.7984    -2.5499    -0.3061 O.2     
  13 N13           -2.8324    -1.7216     0.0283 N.am    
  14 C14           -1.2243     3.3346    -0.9516 C.ar    
  15 C15           -2.2809     3.6852    -1.7965 C.ar    
  16 C16           -2.6329     5.0132    -1.9437 C.ar    
  17 C17           -1.9406     5.9959    -1.2560 C.ar    
  18 C18           -0.8902     5.6532    -0.4160 C.ar    
  19 C19           -0.5340     4.3284    -0.2568 C.ar    
  20 F20           -0.2184     6.6168     0.2512 F       
  21 F21           -2.2885     7.2929    -1.4037 F       
  22 F22           -2.9565     2.7275    -2.4685 F       
  23 C23            3.3355    -1.4259     0.8270 C.3     
  24 C24           -3.6815    -0.5408     0.2041 C.3     
  25 C25           -3.4076    -3.0630     0.1559 C.3     
  26 C26           -3.3078    -3.5243     1.6112 C.3     
  27 C27           -3.9085    -4.9252     1.7445 C.3     
  28 C28           -1.8384    -3.5569     2.0364 C.3     
  29 C29           -4.0768    -2.5522     2.5082 C.3     
  30 O30           -3.8154    -5.3561     3.1038 O.3     
  31 H31            1.1932    -1.8487    -0.2867 H       
  32 H32            1.8779    -0.9983    -1.6941 H       
  33 H33            3.9502     1.2430     0.0831 H       
  34 H34            4.2582    -0.0821    -1.0590 H       
  35 H35            3.4126     1.8892    -2.2526 H       
  36 H36            2.2260     0.5667    -2.3353 H       
  37 H37            1.4686     3.0381    -1.6791 H       
  38 H38            2.0281     2.5373    -0.0638 H       
  39 H39           -3.4493     5.2853    -2.5963 H       
  40 H40            0.2806     4.0625     0.4005 H       
  41 H41            3.7789    -2.0701     0.0677 H       
  42 H42            4.1239    -1.0003     1.4479 H       
  43 H43            2.6587    -2.0110     1.4497 H       
  44 H44           -4.0268    -0.1933    -0.7696 H       
  45 H45           -4.5405    -0.7999     0.8231 H       
  46 H46           -3.1089     0.2494     0.6897 H       
  47 H47           -4.4544    -3.0397    -0.1470 H       
  48 H48           -2.8597    -3.7555    -0.4832 H       
  49 H49           -4.9553    -4.9019     1.4416 H       
  50 H50           -3.3606    -5.6177     1.1054 H       
  51 H51           -1.4105    -2.5589     1.9415 H       
  52 H52           -1.7674    -3.8856     3.0732 H       
  53 H53           -1.2906    -4.2494     1.3973 H       
  54 H54           -5.1236    -2.5290     2.2054 H       
  55 H55           -4.0058    -2.8809     3.5451 H       
  56 H56           -3.6489    -1.5543     2.4133 H       
  57 H57           -4.1779    -6.2384     3.2624 H       
@<TRIPOS>BOND
   1    1    2 1
   2    1    7 1
   3    1    8 1
   4    2    3 1
   5    2   10 2
   6    3    4 1
   7    3   31 1
   8    3   32 1
   9    4    5 1
  10    4   23 1
  11    5    6 1
  12    5   33 1
  13    5   34 1
  14    6    7 1
  15    6   35 1
  16    6   36 1
  17    7   37 1
  18    7   38 1
  19    8    9 2
  20    8   14 1
  21    9   10 1
  22   10   11 1
  23   11   12 2
  24   11   13 am
  25   13   24 1
  26   13   25 1
  27   14   15 ar
  28   14   19 ar
  29   15   16 ar
  30   15   22 1
  31   16   17 ar
  32   16   39 1
  33   17   18 ar
  34   17   21 1
  35   18   19 ar
  36   18   20 1
  37   19   40 1
  38   23   41 1
  39   23   42 1
  40   23   43 1
  41   24   44 1
  42   24   45 1
  43   24   46 1
  44   25   26 1
  45   25   47 1
  46   25   48 1
  47   26   27 1
  48   26   28 1
  49   26   29 1
  50   27   30 1
  51   27   49 1
  52   27   50 1
  53   28   51 1
  54   28   52 1
  55   28   53 1
  56   29   54 1
  57   29   55 1
  58   29   56 1
  59   30   57 1

#	End of record

