#	Name: ASD02198097
#	Creating user name:	WinNT
#	Creation time:	15. 06. 2019 20:18

#	Modifying user name:	WinNT
#	Modification time:	15. 06. 2019 20:18

#	Program:	/corina/corina34_cracker 3.40 0067  02.08.2006

@<TRIPOS>MOLECULE
ASD02198097
  42   44    0    0    0
SMALL
NO_CHARGES


@<TRIPOS>ATOM
   1 C1            -0.0210     1.3616    -0.2532 C.2     
   2 C2             0.0018    -0.0165    -0.2055 C.2     
   3 C3            -1.1842    -0.8183    -0.2366 C.1     
   4 S4             1.5595     1.9984    -0.1971 S.3     
   5 C5             2.2728     0.3960    -0.1080 C.2     
   6 C6             1.2827    -0.5582    -0.1243 C.2     
   7 C7             3.6525     0.1283    -0.0317 C.2     
   8 C8             4.6286     1.2349    -0.1472 C.ar    
   9 O9             4.0436    -1.0153     0.1296 O.2     
  10 N10            1.5335    -1.9199    -0.0656 N.pl3   
  11 N11           -1.1646     2.1200    -0.3402 N.pl3   
  12 N12           -2.1251    -1.4544    -0.2612 N.1     
  13 C13            4.8980     1.8043    -1.3921 C.ar    
  14 C14           -1.0728     3.5815    -0.3845 C.3     
  15 C15           -2.3144     4.1773    -1.0847 C.3     
  16 C16            5.8091     2.8357    -1.4930 C.ar    
  17 C17            6.4551     3.3049    -0.3633 C.ar    
  18 C18            6.1927     2.7441     0.8742 C.ar    
  19 C19            5.2791     1.7170     0.9895 C.ar    
  20 C20            7.4494     4.4313    -0.4810 C.3     
  21 C21            4.1959     1.2937    -2.6239 C.3     
  22 C22           -2.7002     5.3335    -0.1342 C.3     
  23 O23           -2.1988     4.9152     1.1698 O.3     
  24 C24           -1.1059     4.1540     1.0159 C.2     
  25 O25           -0.2726     3.9547     1.8677 O.2     
  26 H26            2.4464    -2.2430    -0.0095 H       
  27 H27            0.7962    -2.5500    -0.0805 H       
  28 H28           -2.0322     1.6874    -0.3723 H       
  29 H29           -0.1628     3.8882    -0.9002 H       
  30 H30           -2.0577     4.5569    -2.0737 H       
  31 H31           -3.1160     3.4413    -1.1462 H       
  32 H32            6.0185     3.2773    -2.4561 H       
  33 H33            6.7009     3.1144     1.7523 H       
  34 H34            5.0751     1.2801     1.9559 H       
  35 H35            6.9345     5.3844    -0.3609 H       
  36 H36            8.2086     4.3282     0.2943 H       
  37 H37            7.9242     4.3958    -1.4615 H       
  38 H38            3.2290     1.7874    -2.7219 H       
  39 H39            4.8036     1.5071    -3.5032 H       
  40 H40            4.0472     0.2174    -2.5375 H       
  41 H41           -2.2195     6.2603    -0.4474 H       
  42 H42           -3.7828     5.4565    -0.1041 H       
@<TRIPOS>BOND
   1    1    2 2
   2    1    4 1
   3    1   11 1
   4    2    3 1
   5    2    6 1
   6    3   12 3
   7    4    5 1
   8    5    6 2
   9    5    7 1
  10    6   10 1
  11    7    8 1
  12    7    9 2
  13    8   13 ar
  14    8   19 ar
  15   10   26 1
  16   10   27 1
  17   11   14 1
  18   11   28 1
  19   13   16 ar
  20   13   21 1
  21   14   15 1
  22   14   24 1
  23   14   29 1
  24   15   22 1
  25   15   30 1
  26   15   31 1
  27   16   17 ar
  28   16   32 1
  29   17   18 ar
  30   17   20 1
  31   18   19 ar
  32   18   33 1
  33   19   34 1
  34   20   35 1
  35   20   36 1
  36   20   37 1
  37   21   38 1
  38   21   39 1
  39   21   40 1
  40   22   23 1
  41   22   41 1
  42   22   42 1
  43   23   24 1
  44   24   25 2

#	End of record

