#	Name: ASD01883763
#	Creating user name:	WinNT
#	Creation time:	15. 06. 2019 19:47

#	Modifying user name:	WinNT
#	Modification time:	15. 06. 2019 19:47

#	Program:	/corina/corina34_cracker 3.40 0067  02.08.2006

@<TRIPOS>MOLECULE
ASD01883763
  45   49    0    0    0
SMALL
NO_CHARGES


@<TRIPOS>ATOM
   1 C1            -0.0167     1.3789     0.0096 C.2     
   2 C2             0.0021    -0.0041     0.0020 C.2     
   3 C3            -1.2229    -0.7132     0.0099 C.2     
   4 C4            -2.3913    -0.0452     0.0241 C.2     
   5 N5            -2.4196     1.3211     0.0313 N.pl3   
   6 C6            -1.2557     2.0462     0.0309 C.2     
   7 C7            -3.4509     2.2218     0.0451 C.2     
   8 C8            -2.9029     3.4569     0.0464 C.2     
   9 N9            -1.5738     3.3342     0.0387 N.2     
  10 C10           -4.9223     1.8963     0.0558 C.3     
  11 C11            1.2907    -0.7354    -0.0147 C.ar    
  12 C12            1.6535    -1.5259     1.0682 C.ar    
  13 C13            2.8687    -2.2099     1.0407 C.ar    
  14 C14            3.7150    -2.0956    -0.0778 C.ar    
  15 C15            3.3310    -1.2970    -1.1532 C.ar    
  16 C16            2.1380    -0.6333    -1.1244 C.ar    
  17 C17           -5.4596     1.9168    -1.3765 C.3     
  18 F18           -4.7775     0.9668    -2.1442 F       
  19 F19           -6.8256     1.6146    -1.3665 F       
  20 F20           -5.2672     3.1878    -1.9286 F       
  21 Cl21           1.4676     2.2791     0.0003 Cl      
  22 C22            3.5525    -3.1065     1.9765 C.2     
  23 C23            4.7113    -3.4639     1.4010 C.2     
  24 N24            4.8257    -2.8700     0.1738 N.pl3   
  25 C25            5.9608    -3.0342    -0.7377 C.3     
  26 C26            6.9506    -1.8859    -0.5315 C.3     
  27 C27            8.2662    -1.9388    -1.3108 C.3     
  28 C28            7.1826    -0.9337    -1.7063 C.3     
  29 Cl29           4.3694    -1.1507    -2.5367 Cl      
  30 H30           -1.2200    -1.7932     0.0040 H       
  31 H31           -3.3198    -0.5968     0.0296 H       
  32 H32           -3.4494     4.3884     0.0557 H       
  33 H33           -5.0722     0.9060     0.4860 H       
  34 H34           -5.4537     2.6365     0.6539 H       
  35 H35            1.0004    -1.6099     1.9243 H       
  36 H36            1.8488    -0.0170    -1.9627 H       
  37 H37            3.1927    -3.4198     2.9454 H       
  38 H38            5.4451    -4.1224     1.8418 H       
  39 H39            6.4570    -3.9829    -0.5328 H       
  40 H40            5.6039    -3.0258    -1.7675 H       
  41 H41            6.9772    -1.4627     0.4727 H       
  42 H42            9.1581    -1.5500    -0.8196 H       
  43 H43            8.4265    -2.7916    -1.9705 H       
  44 H44            6.6300    -1.1252    -2.6261 H       
  45 H45            7.3616     0.1164    -1.4753 H       
@<TRIPOS>BOND
   1    1    2 2
   2    1   21 1
   3    1    6 1
   4    2    3 1
   5    2   11 1
   6    3    4 2
   7    3   30 1
   8    4    5 1
   9    4   31 1
  10    5    6 1
  11    5    7 1
  12    6    9 2
  13    7    8 2
  14    7   10 1
  15    8    9 1
  16    8   32 1
  17   10   17 1
  18   10   33 1
  19   10   34 1
  20   11   12 ar
  21   11   16 ar
  22   12   13 ar
  23   12   35 1
  24   13   14 ar
  25   13   22 1
  26   14   15 ar
  27   14   24 1
  28   15   16 ar
  29   15   29 1
  30   16   36 1
  31   17   18 1
  32   17   19 1
  33   17   20 1
  34   22   23 2
  35   22   37 1
  36   23   24 1
  37   23   38 1
  38   24   25 1
  39   25   26 1
  40   25   39 1
  41   25   40 1
  42   26   27 1
  43   26   28 1
  44   26   41 1
  45   27   28 1
  46   27   42 1
  47   27   43 1
  48   28   44 1
  49   28   45 1

#	End of record

