#	Name: ASD04590228
#	Creating user name:	WinNT
#	Creation time:	15. 06. 2019 20:50

#	Modifying user name:	WinNT
#	Modification time:	15. 06. 2019 20:50

#	Program:	/corina/corina34_cracker 3.40 0067  02.08.2006

@<TRIPOS>MOLECULE
ASD04590228
  56   59    0    0    0
SMALL
NO_CHARGES


@<TRIPOS>ATOM
   1 N1            -0.3128     1.1929    -0.4267 N.pl3   
   2 N2            -0.2800    -0.0876    -0.3309 N.2     
   3 C3             0.9178    -0.5391    -0.6494 C.2     
   4 C4             1.7136     0.5887    -0.9786 C.2     
   5 C5             0.8967     1.6647    -0.8247 C.2     
   6 C6             1.3487    -1.9497    -0.6606 C.2     
   7 N7             0.4795    -2.9226    -0.3224 N.am    
   8 N8             3.0583     0.5926    -1.3783 N.am    
   9 O9             2.4881    -2.2348    -0.9751 O.2     
  10 C10            3.6749     1.7581    -1.6574 C.2     
  11 C11            5.0890     1.7622    -2.0777 C.ar    
  12 O12            3.0656     2.8062    -1.5629 O.2     
  13 C13            0.9074    -4.3236    -0.3336 C.3     
  14 C14            2.0256    -6.1257     0.9872 C.3     
  15 C15            1.5787    -4.6625     0.9989 C.3     
  16 C16            6.1066     1.8594    -1.1224 C.ar    
  17 C17            7.4288     1.8626    -1.5250 C.ar    
  18 C18            7.7472     1.7705    -2.8678 C.ar    
  19 C19            6.7477     1.6745    -3.8188 C.ar    
  20 C20            5.4203     1.6632    -3.4334 C.ar    
  21 F21            5.7976     1.9503     0.1896 F       
  22 F22            4.4454     1.5688    -4.3639 F       
  23 C23           -0.3105    -5.2273    -0.5355 C.3     
  24 C24            0.1365    -6.6906    -0.5472 C.3     
  25 C25            0.8077    -7.0294     0.7853 C.3     
  26 N26            1.2368    -8.4343     0.7741 N.3     
  27 C27            1.6297    -8.8738     2.1149 C.3     
  28 C28            1.6441   -10.4050     2.1775 C.3     
  29 C29            2.2898    -8.6536    -0.2201 C.3     
  30 S30            2.8826   -11.0195     0.9955 S.3     
  31 C31            2.4095   -10.1495    -0.5303 C.3     
  32 H32           -1.0906     1.7432    -0.2449 H       
  33 H33            1.1600     2.6992    -0.9882 H       
  34 H34           -0.4295    -2.6951    -0.0716 H       
  35 H35            3.5443    -0.2435    -1.4537 H       
  36 H36            1.6154    -4.4808    -1.1473 H       
  37 H37            2.7336    -6.2829     0.1735 H       
  38 H38            2.5038    -6.3671     1.9365 H       
  39 H39            2.4464    -4.0187     1.1427 H       
  40 H40            0.8707    -4.5053     1.8127 H       
  41 H41            8.2156     1.9376    -0.7890 H       
  42 H42            8.7825     1.7739    -3.1755 H       
  43 H43            7.0051     1.6037    -4.8653 H       
  44 H44           -1.0185    -5.0702     0.2783 H       
  45 H45           -0.7887    -4.9859    -1.4848 H       
  46 H46           -0.7312    -7.3344    -0.6910 H       
  47 H47            0.8444    -6.8477    -1.3609 H       
  48 H48            0.0997    -6.8723     1.5991 H       
  49 H49            2.6249    -8.4927     2.3439 H       
  50 H50            0.9185    -8.4882     2.8454 H       
  51 H51            1.9073   -10.7279     3.1847 H       
  52 H52            0.6603   -10.7916     1.9113 H       
  53 H53            2.0434    -8.1128    -1.1339 H       
  54 H54            3.2391    -8.2877     0.1710 H       
  55 H55            1.4509   -10.5278    -0.8854 H       
  56 H56            3.1730   -10.3055    -1.2925 H       
@<TRIPOS>BOND
   1    1    2 1
   2    1    5 1
   3    1   32 1
   4    2    3 2
   5    3    4 1
   6    3    6 1
   7    4    5 2
   8    4    8 1
   9    5   33 1
  10    6    7 am
  11    6    9 2
  12    7   13 1
  13    7   34 1
  14    8   10 am
  15    8   35 1
  16   10   11 1
  17   10   12 2
  18   11   16 ar
  19   11   20 ar
  20   13   23 1
  21   13   15 1
  22   13   36 1
  23   14   15 1
  24   14   25 1
  25   14   37 1
  26   14   38 1
  27   15   39 1
  28   15   40 1
  29   16   17 ar
  30   16   21 1
  31   17   18 ar
  32   17   41 1
  33   18   19 ar
  34   18   42 1
  35   19   20 ar
  36   19   43 1
  37   20   22 1
  38   23   24 1
  39   23   44 1
  40   23   45 1
  41   24   25 1
  42   24   46 1
  43   24   47 1
  44   25   26 1
  45   25   48 1
  46   26   27 1
  47   26   29 1
  48   27   28 1
  49   27   49 1
  50   27   50 1
  51   28   30 1
  52   28   51 1
  53   28   52 1
  54   29   31 1
  55   29   53 1
  56   29   54 1
  57   30   31 1
  58   31   55 1
  59   31   56 1

#	End of record

