#	Name: ASD07932225
#	Creating user name:	WinNT
#	Creation time:	15. 06. 2019 21:14

#	Modifying user name:	WinNT
#	Modification time:	15. 06. 2019 21:14

#	Program:	/corina/corina34_cracker 3.40 0067  02.08.2006

@<TRIPOS>MOLECULE
ASD07932225
  70   72    0    0    0
SMALL
NO_CHARGES


@<TRIPOS>ATOM
   1 Cl1            0.0000     0.0000     0.0000 Cl      
   2 H2             0.0000     1.3700     0.0000 H       
   3 Cl3            5.0000     6.3700     5.0000 Cl      
   4 H4             5.0000     7.7400     5.0000 H       
   5 C5            10.9497    19.8075    13.0863 C.ar    
   6 C6            10.9800    18.4139    13.0829 C.ar    
   7 C7            12.1604    17.7400    13.0004 C.ar    
   8 C8            13.3648    18.4564    12.9177 C.ar    
   9 C9            13.3373    19.8756    12.9209 C.ar    
  10 C10           12.0964    20.5351    13.0076 C.ar    
  11 C11           14.6044    17.7949    12.8317 C.ar    
  12 C12           15.7370    18.5529    12.7544 C.ar    
  13 C13           15.6417    19.9524    12.7622 C.ar    
  14 N14           14.4760    20.5637    12.8431 N.ar    
  15 C15           16.8803    20.7632    12.6776 C.2     
  16 N16           16.8066    22.1089    12.6839 N.am    
  17 O17           17.9617    20.2143    12.6026 O.2     
  18 C18           18.0304    22.9099    12.6003 C.3     
  19 C19           17.7853    24.2828    13.2296 C.3     
  20 C20           19.0634    25.1193    13.1423 C.3     
  21 C21           19.4592    25.2943    11.6747 C.3     
  22 C22           19.7043    23.9213    11.0455 C.3     
  23 C23           18.4262    23.0848    11.1328 C.3     
  24 O24           17.4156    24.1194    14.6002 O.3     
  25 C25           14.6791    16.2898    12.8256 C.3     
  26 N26           14.4714    15.7837    14.1890 N.3     
  27 C27           14.1717    14.3462    14.1768 C.3     
  28 C28           13.8192    13.8852    15.5928 C.3     
  29 C29           14.9987    14.1718    16.5262 C.3     
  30 C30           15.3214    15.6680    16.4835 C.3     
  31 C31           15.6304    16.0773    15.0416 C.3     
  32 C32           14.6351    13.7750    17.9338 C.ar    
  33 C33           15.5454    13.9392    18.9669 C.ar    
  34 C34           13.3884    13.2482    18.2122 C.ar    
  35 N35           13.0626    12.8995    19.4417 N.ar    
  36 C36           13.9042    13.0368    20.4474 C.ar    
  37 C37           15.1673    13.5608    20.2458 C.ar    
  38 C38           16.1735    13.4025    16.0847 C.1     
  39 N39           17.0801    12.8087    15.7441 N.1     
  40 H40           10.0000    20.3180    13.1480 H       
  41 H41           10.0545    17.8610    13.1468 H       
  42 H42           12.1699    16.6600    12.9991 H       
  43 H43           12.0551    21.6143    13.0118 H       
  44 H44           16.7039    18.0764    12.6877 H       
  45 H45           15.9433    22.5471    12.7438 H       
  46 H46           18.8336    22.4032    13.1354 H       
  47 H47           16.9821    24.7895    12.6945 H       
  48 H48           18.8888    26.0974    13.5905 H       
  49 H49           19.8665    24.6126    13.6773 H       
  50 H50           18.6560    25.8010    11.1397 H       
  51 H51           20.3697    25.8902    11.6125 H       
  52 H52           19.9863    24.0459    10.0000 H       
  53 H53           20.5075    23.4146    11.5805 H       
  54 H54           18.6008    22.1067    10.6845 H       
  55 H55           17.6231    23.5915    10.5978 H       
  56 H56           17.2446    24.9510    15.0632 H       
  57 H57           13.9069    15.8903    12.1682 H       
  58 H58           15.6595    15.9761    12.4671 H       
  59 H59           13.3285    14.1567    13.5126 H       
  60 H60           15.0437    13.7965    13.8224 H       
  61 H61           12.9390    14.4247    15.9426 H       
  62 H62           13.6120    12.8151    15.5862 H       
  63 H63           14.4648    16.2355    16.8472 H       
  64 H64           16.1875    15.8716    17.1131 H       
  65 H65           16.4955    15.5195    14.6832 H       
  66 H66           15.8466    17.1451    15.0056 H       
  67 H67           16.5257    14.3519    18.7796 H       
  68 H68           12.6722    13.1210    17.4139 H       
  69 H69           13.6018    12.7400    21.4408 H       
  70 H70           15.8524    13.6704    21.0735 H       
@<TRIPOS>BOND
   1    1    2 1
   2    3    4 1
   3    5    6 ar
   4    5   10 ar
   5    5   40 1
   6    6    7 ar
   7    6   41 1
   8    7    8 ar
   9    7   42 1
  10    8    9 ar
  11    8   11 ar
  12    9   10 ar
  13    9   14 ar
  14   10   43 1
  15   11   12 ar
  16   11   25 1
  17   12   13 ar
  18   12   44 1
  19   13   14 ar
  20   13   15 1
  21   15   16 am
  22   15   17 2
  23   16   18 1
  24   16   45 1
  25   18   19 1
  26   18   23 1
  27   18   46 1
  28   19   20 1
  29   19   24 1
  30   19   47 1
  31   20   21 1
  32   20   48 1
  33   20   49 1
  34   21   22 1
  35   21   50 1
  36   21   51 1
  37   22   23 1
  38   22   52 1
  39   22   53 1
  40   23   54 1
  41   23   55 1
  42   24   56 1
  43   25   26 1
  44   25   57 1
  45   25   58 1
  46   26   27 1
  47   26   31 1
  48   27   28 1
  49   27   59 1
  50   27   60 1
  51   28   29 1
  52   28   61 1
  53   28   62 1
  54   29   30 1
  55   29   32 1
  56   29   38 1
  57   30   31 1
  58   30   63 1
  59   30   64 1
  60   31   65 1
  61   31   66 1
  62   32   33 ar
  63   32   34 ar
  64   33   37 ar
  65   33   67 1
  66   34   35 ar
  67   34   68 1
  68   35   36 ar
  69   36   37 ar
  70   36   69 1
  71   37   70 1
  72   38   39 3

#	End of record

