#	Name: ASD00840023
#	Creating user name:	WinNT
#	Creation time:	15. 06. 2019 18:37

#	Modifying user name:	WinNT
#	Modification time:	15. 06. 2019 18:37

#	Program:	/corina/corina34_cracker 3.40 0067  02.08.2006

@<TRIPOS>MOLECULE
ASD00840023
  88   93    0    0    0
SMALL
NO_CHARGES


@<TRIPOS>ATOM
   1 N1            -0.0064     1.3225     0.0260 N.ar    
   2 C2             0.0082     0.0002     0.0131 C.ar    
   3 C3             1.2113    -0.6942    -0.0055 C.ar    
   4 C4             2.3987     0.0164    -0.0103 C.ar    
   5 C5             2.3404     1.4034     0.0037 C.ar    
   6 C6             1.1092     2.0274     0.0218 C.ar    
   7 C7             1.2231    -2.2011    -0.0196 C.3     
   8 C8             0.4753    -2.7260    -1.2267 C.2     
   9 N9             2.5996    -2.7024    -0.0107 N.am    
  10 C10            3.4467    -2.3635    -1.0028 C.2     
  11 N11            4.7402    -2.7372    -0.9415 N.am    
  12 O12            3.0439    -1.7208    -1.9530 O.2     
  13 C13            5.2740    -3.4170     0.2485 C.3     
  14 C14            6.0034    -4.6869    -0.2025 C.3     
  15 N15            7.0040    -4.3380    -1.2198 N.3     
  16 C16            6.3697    -3.7829    -2.4229 C.3     
  17 C17            5.6539    -2.4813    -2.0653 C.3     
  18 C18            7.8418    -5.4975    -1.5537 C.3     
  19 C19            8.7869    -5.1323    -2.7017 C.3     
  20 C20            9.6984    -6.3239    -3.0042 C.3     
  21 N21           10.4690    -6.6697    -1.8030 N.3     
  22 C22            9.5843    -7.0695    -0.7014 C.3     
  23 C23            8.6694    -5.9002    -0.3300 C.3     
  24 C24           11.4547    -7.7193    -2.0940 C.3     
  25 O25            0.7549    -2.5267    -2.3900 O.2     
  26 N26           -0.5566    -3.4537    -0.7673 N.am    
  27 C27            0.4498    -2.7477     1.1583 C.ar    
  28 C28           -0.6003    -3.4867     0.6275 C.ar    
  29 C29            0.6153    -2.6338     2.5203 C.ar    
  30 C30           -0.2720    -3.2607     3.3791 C.ar    
  31 C31           -1.3236    -4.0007     2.8623 C.ar    
  32 C32           -1.4901    -4.1154     1.4954 C.ar    
  33 Cl33          -0.0672    -3.1205     5.0973 Cl      
  34 F34           -2.1899    -4.6129     3.6989 F       
  35 C35           -1.0264    -5.8414    -2.0528 C.ar    
  36 C36           -1.3581    -6.8834    -1.2071 C.ar    
  37 C37           -0.2095    -6.0703    -3.1442 C.ar    
  38 C38            0.2757    -7.3411    -3.3899 C.ar    
  39 C39           -0.0556    -8.3830    -2.5440 C.ar    
  40 C40           -0.8725    -8.1541    -1.4526 C.ar    
  41 H41            0.3235    -9.3759    -2.7360 H       
  42 H42           -1.9963    -6.7045    -0.3544 H       
  43 C43           12.3989    -7.8773    -0.9006 C.3     
  44 C44           13.4256    -8.9705    -1.2036 C.3     
  45 O45           -1.1629    -0.6848     0.0184 O.3     
  46 C46           -3.5737    -0.8522     0.0414 C.3     
  47 C47           -2.3656     0.0867     0.0381 C.3     
  48 S48           -1.6507    -4.2230    -1.7437 S.o2    
  49 O49           -2.8312    -4.3892    -0.9704 O.2     
  50 O50           -1.6274    -3.5392    -2.9892 O.2     
  51 H51            3.3491    -0.4964    -0.0242 H       
  52 H52            3.2486     1.9879     0.0008 H       
  53 H53            1.0583     3.1062     0.0323 H       
  54 H54            2.9015    -3.2781     0.7092 H       
  55 H55            5.9719    -2.7577     0.7647 H       
  56 H56            4.4548    -3.6829     0.9166 H       
  57 H57            6.4992    -5.1450     0.6533 H       
  58 H58            5.2843    -5.3886    -0.6253 H       
  59 H59            7.1312    -3.5853    -3.1773 H       
  60 H60            5.6455    -4.4971    -2.8147 H       
  61 H61            5.0875    -2.1264    -2.9263 H       
  62 H62            6.3862    -1.7298    -1.7702 H       
  63 H63            7.2070    -6.3307    -1.8555 H       
  64 H64            8.2037    -4.8858    -3.5889 H       
  65 H65            9.3938    -4.2737    -2.4143 H       
  66 H66            9.0917    -7.1781    -3.3049 H       
  67 H67           10.3823    -6.0622    -3.8117 H       
  68 H68            8.9781    -7.9202    -1.0128 H       
  69 H69           10.1853    -7.3494     0.1638 H       
  70 H70            9.2744    -5.0537    -0.0053 H       
  71 H71            8.0022    -6.2023     0.4772 H       
  72 H72           10.9386    -8.6619    -2.2763 H       
  73 H73           12.0295    -7.4430    -2.9780 H       
  74 H74            1.4364    -2.0563     2.9185 H       
  75 H75           -2.3119    -4.6934     1.0992 H       
  76 H76            0.0494    -5.2563    -3.8051 H       
  77 H77            0.9134    -7.5201    -4.2430 H       
  78 H78           -1.1317    -8.9682    -0.7919 H       
  79 H79           12.9150    -6.9347    -0.7183 H       
  80 H80           11.8242    -8.1536    -0.0166 H       
  81 H81           12.9095    -9.9131    -1.3859 H       
  82 H82           14.0004    -8.6941    -2.0876 H       
  83 H83           14.0982    -9.0830    -0.3534 H       
  84 H84           -4.4911    -0.2637     0.0564 H       
  85 H85           -3.5544    -1.4722    -0.8549 H       
  86 H86           -3.5362    -1.4894     0.9249 H       
  87 H87           -2.3849     0.7067     0.9344 H       
  88 H88           -2.4030     0.7239    -0.8454 H       
@<TRIPOS>BOND
   1    1    2 ar
   2    1    6 ar
   3    2    3 ar
   4    2   45 1
   5    3    4 ar
   6    3    7 1
   7    4    5 ar
   8    4   51 1
   9    5    6 ar
  10    5   52 1
  11    6   53 1
  12    7    8 1
  13    7    9 1
  14    7   27 1
  15    8   25 2
  16    8   26 am
  17    9   10 am
  18    9   54 1
  19   10   11 am
  20   10   12 2
  21   11   13 1
  22   11   17 1
  23   13   14 1
  24   13   55 1
  25   13   56 1
  26   14   15 1
  27   14   57 1
  28   14   58 1
  29   15   16 1
  30   15   18 1
  31   16   17 1
  32   16   59 1
  33   16   60 1
  34   17   61 1
  35   17   62 1
  36   18   19 1
  37   18   23 1
  38   18   63 1
  39   19   20 1
  40   19   64 1
  41   19   65 1
  42   20   21 1
  43   20   66 1
  44   20   67 1
  45   21   22 1
  46   21   24 1
  47   22   23 1
  48   22   68 1
  49   22   69 1
  50   23   70 1
  51   23   71 1
  52   24   43 1
  53   24   72 1
  54   24   73 1
  55   26   48 am
  56   26   28 1
  57   27   28 ar
  58   27   29 ar
  59   28   32 ar
  60   29   30 ar
  61   29   74 1
  62   30   31 ar
  63   30   33 1
  64   31   32 ar
  65   31   34 1
  66   32   75 1
  67   35   36 ar
  68   35   37 ar
  69   35   48 1
  70   36   42 1
  71   36   40 ar
  72   37   38 ar
  73   37   76 1
  74   38   39 ar
  75   38   77 1
  76   39   40 ar
  77   39   41 1
  78   40   78 1
  79   43   44 1
  80   43   79 1
  81   43   80 1
  82   44   81 1
  83   44   82 1
  84   44   83 1
  85   45   47 1
  86   46   47 1
  87   46   84 1
  88   46   85 1
  89   46   86 1
  90   47   87 1
  91   47   88 1
  92   48   49 2
  93   48   50 2

#	End of record

