#	Name: ASD01911280
#	Creating user name:	WinNT
#	Creation time:	15. 06. 2019 19:57

#	Modifying user name:	WinNT
#	Modification time:	15. 06. 2019 19:57

#	Program:	/corina/corina34_cracker 3.40 0067  02.08.2006

@<TRIPOS>MOLECULE
ASD01911280
  41   44    0    0    0
SMALL
NO_CHARGES


@<TRIPOS>ATOM
   1 C1            -0.0189     1.5449     0.0105 C.3     
   2 C2             0.0021    -0.0041     0.0020 C.3     
   3 N3             1.1532    -0.3705     0.8470 N.am    
   4 C4             2.1046     0.7503     0.8595 C.3     
   5 C5             1.4966     1.8770    -0.0022 C.3     
   6 C6             1.3076    -1.5392     1.5003 C.2     
   7 O7             2.2998    -1.7329     2.1703 O.2     
   8 C8             0.2472    -2.6052     1.3985 C.3     
   9 C9             3.4218     0.3111     0.2736 C.2     
  10 N10            4.6118     0.5617     0.7601 N.2     
  11 C11            5.4831    -0.0251    -0.0913 C.2     
  12 N12            4.7780    -0.5919    -1.0354 N.2     
  13 O13            3.5950    -0.4124    -0.8369 O.3     
  14 C14            6.9629    -0.0253     0.0239 C.ar    
  15 C15            7.7383    -0.6751    -0.9337 C.ar    
  16 C16            9.1143    -0.6730    -0.8230 C.ar    
  17 C17            9.7247    -0.0274     0.2364 C.ar    
  18 C18            8.9593     0.6205     1.1926 C.ar    
  19 C19            7.5811     0.6293     1.0871 C.ar    
  20 F20            9.5610     1.2490     2.2261 F       
  21 C21            0.5725    -3.8762     2.2006 C.3     
  22 C22           -0.9140    -3.9143     2.5929 C.3     
  23 C23           -0.9329    -2.3941     2.3616 C.3     
  24 H24           -0.5116     1.9338    -0.8806 H       
  25 H25           -0.4945     1.9242     0.9150 H       
  26 H26           -0.9211    -0.3983     0.4268 H       
  27 H27            0.1428    -0.3760    -1.0129 H       
  28 H28            2.2497     1.1020     1.8809 H       
  29 H29            1.8908     1.8413    -1.0178 H       
  30 H30            1.6817     2.8512     0.4504 H       
  31 H31           -0.0564    -2.8033     0.3705 H       
  32 H32            7.2634    -1.1803    -1.7618 H       
  33 H33            9.7154    -1.1772    -1.5653 H       
  34 H34           10.8015    -0.0284     0.3190 H       
  35 H35            6.9845     1.1342     1.8323 H       
  36 H36            0.8819    -4.7171     1.5798 H       
  37 H37            1.2420    -3.7017     3.0428 H       
  38 H38           -1.5364    -4.4704     1.8919 H       
  39 H39           -1.0844    -4.2002     3.6308 H       
  40 H40           -0.6750    -1.8144     3.2478 H       
  41 H41           -1.8388    -2.0384     1.8708 H       
@<TRIPOS>BOND
   1    1    2 1
   2    1    5 1
   3    1   24 1
   4    1   25 1
   5    2    3 1
   6    2   26 1
   7    2   27 1
   8    3    4 1
   9    3    6 am
  10    4    5 1
  11    4    9 1
  12    4   28 1
  13    5   29 1
  14    5   30 1
  15    6    7 2
  16    6    8 1
  17    8   21 1
  18    8   23 1
  19    8   31 1
  20    9   10 2
  21    9   13 1
  22   10   11 1
  23   11   12 2
  24   11   14 1
  25   12   13 1
  26   14   15 ar
  27   14   19 ar
  28   15   16 ar
  29   15   32 1
  30   16   17 ar
  31   16   33 1
  32   17   18 ar
  33   17   34 1
  34   18   19 ar
  35   18   20 1
  36   19   35 1
  37   21   22 1
  38   21   36 1
  39   21   37 1
  40   22   23 1
  41   22   38 1
  42   22   39 1
  43   23   40 1
  44   23   41 1

#	End of record

