#	Name: ASD01915783
#	Creating user name:	WinNT
#	Creation time:	15. 06. 2019 20:06

#	Modifying user name:	WinNT
#	Modification time:	15. 06. 2019 20:06

#	Program:	/corina/corina34_cracker 3.40 0067  02.08.2006

@<TRIPOS>MOLECULE
ASD01915783
  47   50    0    0    0
SMALL
NO_CHARGES


@<TRIPOS>ATOM
   1 C1            -0.0166     1.3728     0.0096 C.2     
   2 N2             0.0021    -0.0041     0.0020 N.pl3   
   3 C3            -1.2433    -0.7807    -0.0179 C.3     
   4 C4            -2.3411     0.0067     0.6954 C.3     
   5 N5            -2.4044     1.3988     0.2637 N.am    
   6 C6            -1.2812     2.1228     0.0393 C.2     
   7 C7             1.2845     1.7904    -0.0006 C.2     
   8 C8             2.0437     0.6124    -0.0024 C.2     
   9 N9             1.2133    -0.4042     0.0045 N.2     
  10 C10            3.5483     0.5278    -0.0111 C.3     
  11 O11            4.0995     1.8461    -0.0175 O.3     
  12 C12            5.4546     1.9482    -0.0257 C.ar    
  13 O13           -1.3170     3.3270    -0.1285 O.2     
  14 C14            6.0573     3.1978    -0.0322 C.ar    
  15 C15            6.2377     0.8031    -0.0220 C.ar    
  16 C16            7.6150     0.9095    -0.0305 C.ar    
  17 C17            8.2132     2.1560    -0.0427 C.ar    
  18 C18            7.4350     3.2989    -0.0407 C.ar    
  19 C19           -3.6507     1.9987     0.0775 C.ar    
  20 N20           -3.7294     3.2246    -0.4129 N.ar    
  21 C21           -4.8166     1.3044     0.4029 C.ar    
  22 C22           -6.0287     1.9405     0.2009 C.ar    
  23 C23           -6.0093     3.2370    -0.3157 C.ar    
  24 N24           -4.8535     3.8150    -0.6006 N.ar    
  25 N25           -7.2037     3.9182    -0.5369 N.pl3   
  26 C26           -8.4758     3.3187    -0.1262 C.3     
  27 C27           -7.1881     5.2342    -1.1803 C.3     
  28 H28           -1.5404    -0.9656    -1.0502 H       
  29 H29           -1.0875    -1.7313     0.4922 H       
  30 H30           -3.3017    -0.4680     0.4955 H       
  31 H31           -2.1536    -0.0209     1.7688 H       
  32 H32            1.6486     2.8072    -0.0066 H       
  33 H33            3.8874    -0.0036     0.8781 H       
  34 H34            3.8769    -0.0077    -0.9018 H       
  35 H35            5.4498     4.0908    -0.0310 H       
  36 H36            5.7710    -0.1708    -0.0121 H       
  37 H37            8.2251     0.0183    -0.0272 H       
  38 H38            9.2901     2.2371    -0.0493 H       
  39 H39            7.9046     4.2714    -0.0506 H       
  40 H40           -4.7741     0.3009     0.8000 H       
  41 H41           -6.9612     1.4488     0.4355 H       
  42 H42           -8.7057     3.6190     0.8961 H       
  43 H43           -9.2693     3.6584    -0.7919 H       
  44 H44           -8.3989     2.2326    -0.1773 H       
  45 H45           -6.1602     5.5132    -1.4120 H       
  46 H46           -7.7704     5.1955    -2.1010 H       
  47 H47           -7.6221     5.9731    -0.5067 H       
@<TRIPOS>BOND
   1    1    2 1
   2    1    7 2
   3    1    6 1
   4    2    3 1
   5    2    9 1
   6    3    4 1
   7    3   28 1
   8    3   29 1
   9    4    5 1
  10    4   30 1
  11    4   31 1
  12    5    6 am
  13    5   19 1
  14    6   13 2
  15    7    8 1
  16    7   32 1
  17    8    9 2
  18    8   10 1
  19   10   11 1
  20   10   33 1
  21   10   34 1
  22   11   12 1
  23   12   14 ar
  24   12   15 ar
  25   14   18 ar
  26   14   35 1
  27   15   16 ar
  28   15   36 1
  29   16   17 ar
  30   16   37 1
  31   17   18 ar
  32   17   38 1
  33   18   39 1
  34   19   21 ar
  35   19   20 ar
  36   20   24 ar
  37   21   22 ar
  38   21   40 1
  39   22   23 ar
  40   22   41 1
  41   23   24 ar
  42   23   25 1
  43   25   26 1
  44   25   27 1
  45   26   42 1
  46   26   43 1
  47   26   44 1
  48   27   45 1
  49   27   46 1
  50   27   47 1

#	End of record

