#	Name: ASD01882111
#	Creating user name:	WinNT
#	Creation time:	15. 06. 2019 19:43

#	Modifying user name:	WinNT
#	Modification time:	15. 06. 2019 19:43

#	Program:	/corina/corina34_cracker 3.40 0067  02.08.2006

@<TRIPOS>MOLECULE
ASD01882111
  49   52    0    0    0
SMALL
NO_CHARGES


@<TRIPOS>ATOM
   1 C1            -1.0177    -0.1553    -1.0574 C.2     
   2 C2            -0.0318    -0.0512    -0.0999 C.2     
   3 C3            -0.2264     0.8065     1.0041 C.2     
   4 C4            -1.3659     1.5156     1.1188 C.2     
   5 N5            -2.3487     1.4192     0.1759 N.pl3   
   6 C6            -2.1947     0.6015    -0.9138 C.2     
   7 C7            -3.5781     2.0174     0.0563 C.2     
   8 C8            -4.1379     1.5543    -1.0808 C.2     
   9 N9            -3.2888     0.6986    -1.6581 N.2     
  10 N10            1.1444    -0.7852    -0.2203 N.pl3   
  11 C11           -4.1888     3.0061     1.0157 C.3     
  12 C12            1.1176    -2.2537    -0.1827 C.3     
  13 C13            2.0991    -2.7376     0.8893 C.3     
  14 C14            3.4817    -2.1410     0.6160 C.3     
  15 C15            3.4034    -0.6142     0.6865 C.3     
  16 C16            2.4360    -0.1064    -0.3934 C.3     
  17 C17            4.4578    -2.6419     1.6490 C.ar    
  18 C18            5.5706    -3.3621     1.2566 C.ar    
  19 C19            4.2434    -2.3764     2.9886 C.ar    
  20 C20            5.1388    -2.8359     3.9362 C.ar    
  21 C21            6.2484    -3.5613     3.5444 C.ar    
  22 C22            6.4660    -3.8216     2.2043 C.ar    
  23 C23           -0.8344    -1.0634    -2.2460 C.3     
  24 C24           -5.0954     2.2667     2.0017 C.3     
  25 F25           -4.3414     1.3291     2.7155 F       
  26 F26           -5.6624     3.1846     2.8923 F       
  27 F27           -6.1115     1.6103     1.2988 F       
  28 H28            0.5405     0.8941     1.7595 H       
  29 H29           -1.5040     2.1687     1.9677 H       
  30 H30           -5.1095     1.8312    -1.4624 H       
  31 H31           -3.3971     3.5175     1.5633 H       
  32 H32           -4.7763     3.7366     0.4595 H       
  33 H33            0.1117    -2.5946     0.0622 H       
  34 H34            1.4133    -2.6495    -1.1543 H       
  35 H35            1.7522    -2.4168     1.8716 H       
  36 H36            2.1604    -3.8255     0.8620 H       
  37 H37            3.8173    -2.4419    -0.3765 H       
  38 H38            3.0442    -0.3135     1.6707 H       
  39 H39            4.3930    -0.1909     0.5149 H       
  40 H40            2.8416    -0.3277    -1.3806 H       
  41 H41            2.2994     0.9695    -0.2850 H       
  42 H42            5.7403    -3.5660     0.2097 H       
  43 H43            3.3765    -1.8097     3.2948 H       
  44 H44            4.9717    -2.6279     4.9828 H       
  45 H45            6.9481    -3.9200     4.2847 H       
  46 H46            7.3329    -4.3883     1.8981 H       
  47 H47           -1.1343    -2.0767    -1.9788 H       
  48 H48           -1.4498    -0.7085    -3.0727 H       
  49 H49            0.2134    -1.0619    -2.5463 H       
@<TRIPOS>BOND
   1    1    2 2
   2    1   23 1
   3    1    6 1
   4    2    3 1
   5    2   10 1
   6    3    4 2
   7    3   28 1
   8    4    5 1
   9    4   29 1
  10    5    6 1
  11    5    7 1
  12    6    9 2
  13    7    8 2
  14    7   11 1
  15    8    9 1
  16    8   30 1
  17   10   12 1
  18   10   16 1
  19   11   24 1
  20   11   31 1
  21   11   32 1
  22   12   13 1
  23   12   33 1
  24   12   34 1
  25   13   14 1
  26   13   35 1
  27   13   36 1
  28   14   15 1
  29   14   17 1
  30   14   37 1
  31   15   16 1
  32   15   38 1
  33   15   39 1
  34   16   40 1
  35   16   41 1
  36   17   18 ar
  37   17   19 ar
  38   18   22 ar
  39   18   42 1
  40   19   20 ar
  41   19   43 1
  42   20   21 ar
  43   20   44 1
  44   21   22 ar
  45   21   45 1
  46   22   46 1
  47   23   47 1
  48   23   48 1
  49   23   49 1
  50   24   25 1
  51   24   26 1
  52   24   27 1

#	End of record

