#	Name: ASD00843822
#	Creating user name:	WinNT
#	Creation time:	15. 06. 2019 18:47

#	Modifying user name:	WinNT
#	Modification time:	15. 06. 2019 18:47

#	Program:	/corina/corina34_cracker 3.40 0067  02.08.2006

@<TRIPOS>MOLECULE
ASD00843822
  88   93    0    0    0
SMALL
NO_CHARGES


@<TRIPOS>ATOM
   1 N1            -0.0159     1.3183     0.0093 N.ar    
   2 C2             0.0021    -0.0041     0.0020 C.ar    
   3 C3             1.2069    -0.6955    -0.0132 C.ar    
   4 C4             2.3925     0.0180    -0.0207 C.ar    
   5 C5             2.3308     1.4049    -0.0127 C.ar    
   6 C6             1.0980     2.0259     0.0025 C.ar    
   7 C7             1.2224    -2.2024    -0.0209 C.3     
   8 C8             0.4764    -2.7346    -1.2259 C.2     
   9 O9             2.5879    -2.6961    -0.0089 O.3     
  10 C10            3.3819    -2.3225    -1.0300 C.2     
  11 N11            4.6605    -2.7459    -1.0791 N.am    
  12 O12            2.9459    -1.6036    -1.9072 O.2     
  13 C13            5.5450    -2.3497    -2.1855 C.3     
  14 C14            6.8416    -1.7863    -1.5942 C.3     
  15 N15            7.4154    -2.7640    -0.6600 N.3     
  16 C16            6.5183    -3.0033     0.4784 C.3     
  17 C17            5.2101    -3.6115    -0.0246 C.3     
  18 N18            8.7309    -2.3420    -0.2069 N.3     
  19 C19            9.3049    -3.3200     0.7277 C.3     
  20 C20           10.7180    -2.8802     1.1181 C.3     
  21 N21           10.6616    -1.5441     1.7274 N.3     
  22 C22           10.0876    -0.5661     0.7927 C.3     
  23 C23            8.6746    -1.0058     0.4023 C.3     
  24 C24           11.9907    -1.1177     2.1851 C.3     
  25 O25            0.7568    -2.5406    -2.3898 O.2     
  26 N26           -0.5539    -3.4626    -0.7644 N.am    
  27 C27            0.4487    -2.7464     1.1585 C.ar    
  28 C28           -0.6011    -3.4915     0.6265 C.ar    
  29 C29            0.6132    -2.6250     2.5150 C.ar    
  30 C30           -0.2835    -3.2566     3.3842 C.ar    
  31 C31           -1.3412    -4.0072     2.8566 C.ar    
  32 C32           -1.4949    -4.1227     1.4917 C.ar    
  33 F33           -2.2122    -4.6208     3.6873 F       
  34 C34           -1.0164    -5.8557    -2.0426 C.ar    
  35 C35            0.1620    -6.0205    -2.7555 C.ar    
  36 C36           -1.6940    -6.9611    -1.5653 C.ar    
  37 C37           -1.1982    -8.2306    -1.7972 C.ar    
  38 C38           -0.0235    -8.3975    -2.5075 C.ar    
  39 C39            0.6573    -7.2957    -2.9873 C.ar    
  40 H40            0.3618    -9.3903    -2.6874 H       
  41 O41            0.8301    -4.9348    -3.2264 O.3     
  42 C42            2.0366    -5.1799    -3.9519 C.3     
  43 C43            2.6426    -3.8479    -4.3988 C.3     
  44 S44           -1.6449    -4.2377    -1.7399 S.o2    
  45 O45           -2.8262    -4.4040    -0.9678 O.2     
  46 O46           -1.6212    -3.5580    -2.9876 O.2     
  47 O47           -1.1673    -0.6919     0.0099 O.3     
  48 C48           -2.3720     0.0766     0.0260 C.3     
  49 C49           -3.5777    -0.8652     0.0330 C.3     
  50 F50           -3.5507    -1.6659    -1.1140 F       
  51 F51           -3.5280    -1.6782     1.1704 F       
  52 C52           -0.1204    -3.1366     4.8018 C.1     
  53 N53            0.0090    -3.0413     5.9263 N.1     
  54 H54            3.3442    -0.4925    -0.0322 H       
  55 H55            3.2375     1.9916    -0.0178 H       
  56 H56            1.0444     3.1046     0.0084 H       
  57 H57            5.7714    -3.2192    -2.8026 H       
  58 H58            5.0558    -1.5857    -2.7897 H       
  59 H59            7.5522    -1.5900    -2.3971 H       
  60 H60            6.6265    -0.8589    -1.0635 H       
  61 H61            6.9944    -3.6895     1.1788 H       
  62 H62            6.3077    -2.0589     0.9803 H       
  63 H63            4.4997    -3.6844     0.7988 H       
  64 H64            5.4015    -4.6028    -0.4356 H       
  65 H65            8.6825    -3.3784     1.6206 H       
  66 H66            9.3477    -4.2985     0.2493 H       
  67 H67           11.1347    -3.5890     1.8337 H       
  68 H68           11.3475    -2.8482     0.2289 H       
  69 H69           10.0448     0.4124     1.2711 H       
  70 H70           10.7100    -0.5077    -0.1002 H       
  71 H71            8.2578    -0.2971    -0.3133 H       
  72 H72            8.0450    -1.0379     1.2916 H       
  73 H73           12.6744    -1.0864     1.3367 H       
  74 H74           11.9203    -0.1259     2.6317 H       
  75 H75           12.3637    -1.8244     2.9264 H       
  76 H76            1.4328    -2.0439     2.9111 H       
  77 H77           -2.3125    -4.7030     1.0901 H       
  78 H78           -2.6116    -6.8333    -1.0102 H       
  79 H79           -1.7289    -9.0934    -1.4226 H       
  80 H80            1.5743    -7.4267    -3.5426 H       
  81 H81            2.7454    -5.7048    -3.3115 H       
  82 H82            1.8164    -5.7908    -4.8274 H       
  83 H83            2.8627    -3.2370    -3.5233 H       
  84 H84            3.5628    -4.0349    -4.9521 H       
  85 H85            1.9338    -3.3230    -5.0392 H       
  86 H86           -2.3931     0.7004     0.9196 H       
  87 H87           -2.4108     0.7099    -0.8602 H       
  88 H88           -4.4966    -0.2790     0.0452 H       
@<TRIPOS>BOND
   1    1    2 ar
   2    1    6 ar
   3    2    3 ar
   4    2   47 1
   5    3    4 ar
   6    3    7 1
   7    4    5 ar
   8    4   54 1
   9    5    6 ar
  10    5   55 1
  11    6   56 1
  12    7    8 1
  13    7    9 1
  14    7   27 1
  15    8   25 2
  16    8   26 am
  17    9   10 1
  18   10   11 am
  19   10   12 2
  20   11   13 1
  21   11   17 1
  22   13   14 1
  23   13   57 1
  24   13   58 1
  25   14   15 1
  26   14   59 1
  27   14   60 1
  28   15   16 1
  29   15   18 1
  30   16   17 1
  31   16   61 1
  32   16   62 1
  33   17   63 1
  34   17   64 1
  35   18   19 1
  36   18   23 1
  37   19   20 1
  38   19   65 1
  39   19   66 1
  40   20   21 1
  41   20   67 1
  42   20   68 1
  43   21   22 1
  44   21   24 1
  45   22   23 1
  46   22   69 1
  47   22   70 1
  48   23   71 1
  49   23   72 1
  50   24   73 1
  51   24   74 1
  52   24   75 1
  53   26   44 am
  54   26   28 1
  55   27   28 ar
  56   27   29 ar
  57   28   32 ar
  58   29   30 ar
  59   29   76 1
  60   30   31 ar
  61   30   52 1
  62   31   32 ar
  63   31   33 1
  64   32   77 1
  65   34   35 ar
  66   34   36 ar
  67   34   44 1
  68   35   41 1
  69   35   39 ar
  70   36   37 ar
  71   36   78 1
  72   37   38 ar
  73   37   79 1
  74   38   39 ar
  75   38   40 1
  76   39   80 1
  77   41   42 1
  78   42   43 1
  79   42   81 1
  80   42   82 1
  81   43   83 1
  82   43   84 1
  83   43   85 1
  84   44   45 2
  85   44   46 2
  86   47   48 1
  87   48   49 1
  88   48   86 1
  89   48   87 1
  90   49   50 1
  91   49   51 1
  92   49   88 1
  93   52   53 3

#	End of record

