#	Name: ASD03430943
#	Creating user name:	WinNT
#	Creation time:	15. 06. 2019 20:41

#	Modifying user name:	WinNT
#	Modification time:	15. 06. 2019 20:41

#	Program:	/corina/corina34_cracker 3.40 0067  02.08.2006

@<TRIPOS>MOLECULE
ASD03430943
  36   40    0    0    0
SMALL
NO_CHARGES


@<TRIPOS>ATOM
   1 C1             0.0021    -0.0041     0.0020 C.1     
   2 C2            -0.0179     1.4678     0.0101 C.3     
   3 N3             0.0175    -1.1399    -0.0042 N.1     
   4 O4             6.2613    -1.2452    -2.2042 O.3     
   5 C5             7.6751    -1.1505    -2.4594 C.3     
   6 O6             7.8417     0.1846    -2.9720 O.3     
   7 C7             6.8205     0.9135    -2.4329 C.ar    
   8 C8             5.8485     0.0337    -1.9619 C.ar    
   9 C9             6.6390     2.2787    -2.3030 C.ar    
  10 C10            5.4883     2.7833    -1.7050 C.ar    
  11 C11            4.5207     1.8948    -1.2458 C.ar    
  12 C12            4.7014     0.5329    -1.3683 C.ar    
  13 O13            5.1252     4.0761    -1.4658 O.3     
  14 C14            3.4017     2.7313    -0.6854 C.3     
  15 C15            3.7055     4.1346    -1.2277 C.3     
  16 N16            1.3565     1.9749    -0.0003 N.am    
  17 C17            2.0516     2.2418    -1.1240 C.2     
  18 C18            3.3660     2.7065     0.8140 C.ar    
  19 C19            4.2777     3.0334     1.7929 C.ar    
  20 C20            3.9390     2.9000     3.1276 C.ar    
  21 C21            2.6832     2.4370     3.4761 C.ar    
  22 C22            1.7669     2.1073     2.4993 C.ar    
  23 C23            2.0991     2.2388     1.1531 C.ar    
  24 O24            1.6627     2.1123    -2.2654 O.2     
  25 H25           -0.5451     1.8289    -0.8729 H       
  26 H26           -0.5281     1.8193     0.9069 H       
  27 H27            8.2404    -1.2797    -1.5364 H       
  28 H28            7.9802    -1.8870    -3.2028 H       
  29 H29            7.3956     2.9575    -2.6682 H       
  30 H30            3.9461    -0.1458    -1.0006 H       
  31 H31            3.4686     4.8963    -0.4850 H       
  32 H32            3.1644     4.3162    -2.1563 H       
  33 H33            5.2578     3.3946     1.5184 H       
  34 H34            4.6534     3.1572     3.8956 H       
  35 H35            2.4189     2.3327     4.5181 H       
  36 H36            0.7885     1.7459     2.7793 H       
@<TRIPOS>BOND
   1    1    2 1
   2    1    3 3
   3    2   16 1
   4    2   25 1
   5    2   26 1
   6    4    5 1
   7    4    8 1
   8    5    6 1
   9    5   27 1
  10    5   28 1
  11    6    7 1
  12    7    8 ar
  13    7    9 ar
  14    8   12 ar
  15    9   10 ar
  16    9   29 1
  17   10   11 ar
  18   10   13 1
  19   11   12 ar
  20   11   14 1
  21   12   30 1
  22   13   15 1
  23   14   15 1
  24   14   17 1
  25   14   18 1
  26   15   31 1
  27   15   32 1
  28   16   17 am
  29   16   23 1
  30   17   24 2
  31   18   19 ar
  32   18   23 ar
  33   19   20 ar
  34   19   33 1
  35   20   21 ar
  36   20   34 1
  37   21   22 ar
  38   21   35 1
  39   22   23 ar
  40   22   36 1

#	End of record

