#	Name: ASD01940033
#	Creating user name:	WinNT
#	Creation time:	15. 06. 2019 20:11

#	Modifying user name:	WinNT
#	Modification time:	15. 06. 2019 20:11

#	Program:	/corina/corina34_cracker 3.40 0067  02.08.2006

@<TRIPOS>MOLECULE
ASD01940033
  47   49    0    0    0
SMALL
NO_CHARGES


@<TRIPOS>ATOM
   1 C1            -0.4341     1.3679     0.0710 C.ar    
   2 C2            -0.4811     0.1615    -0.6158 C.ar    
   3 C3            -1.6358    -0.5955    -0.6025 C.ar    
   4 C4            -2.7489    -0.1514     0.0966 C.ar    
   5 C5            -2.7029     1.0537     0.7825 C.ar    
   6 C6            -1.5472     1.8092     0.7750 C.ar    
   7 N7             0.7359     2.1355     0.0584 N.pl3   
   8 C8             0.6570     3.5166     0.0568 C.2     
   9 C9             1.7052     4.4189     0.1692 C.2     
  10 C10            1.2996     5.7540     0.1336 C.2     
  11 N11            0.0271     5.9770     0.0033 N.2     
  12 S12           -0.7602     4.4796    -0.0925 S.3     
  13 O13            2.1937     6.7719     0.2311 O.3     
  14 C14            3.1111     4.0073     0.3123 C.2     
  15 N15            3.6473     3.8089     1.5676 N.pl3   
  16 N16            3.8515     3.8299    -0.7501 N.2     
  17 C17            5.0466     3.3992     1.7100 C.3     
  18 C18            5.9457     4.6368     1.6822 C.3     
  19 C19            5.2303     2.6652     3.0398 C.3     
  20 O20            4.9891     3.5690     4.1201 O.3     
  21 O21           -3.8855    -0.8975     0.1092 O.3     
  22 C22           -3.9194    -2.0212    -0.6539 C.ar    
  23 C23           -3.2469    -3.1620    -0.2403 C.ar    
  24 C24           -3.2827    -4.3057    -1.0182 C.ar    
  25 C25           -3.9894    -4.3121    -2.2089 C.ar    
  26 C26           -4.6314    -2.0307    -1.8446 C.ar    
  27 C27           -4.6611    -3.1744    -2.6230 C.ar    
  28 F28           -2.6275    -5.4167    -0.6160 F       
  29 F29           -5.3498    -3.1823    -3.7853 F       
  30 H30            0.3852    -0.1841    -1.1604 H       
  31 H31           -1.6726    -1.5334    -1.1368 H       
  32 H32           -3.5700     1.3990     1.3259 H       
  33 H33           -1.5115     2.7473     1.3089 H       
  34 H34            1.6022     1.6992     0.0508 H       
  35 H35            2.5436     7.0708    -0.6194 H       
  36 H36            3.0978     3.9405     2.3560 H       
  37 H37            4.7780     3.5586    -0.6557 H       
  38 H38            5.3164     2.7356     0.8884 H       
  39 H39            5.6760     5.3004     2.5038 H       
  40 H40            6.9868     4.3320     1.7882 H       
  41 H41            5.8149     5.1598     0.7348 H       
  42 H42            4.5264     1.8349     3.0967 H       
  43 H43            6.2490     2.2831     3.1062 H       
  44 H44            5.0880     3.1707     4.9957 H       
  45 H45           -2.6953    -3.1572     0.6882 H       
  46 H46           -4.0164    -5.2053    -2.8154 H       
  47 H47           -5.1589    -1.1447    -2.1658 H       
@<TRIPOS>BOND
   1    1    2 ar
   2    1    7 1
   3    1    6 ar
   4    2    3 ar
   5    2   30 1
   6    3    4 ar
   7    3   31 1
   8    4    5 ar
   9    4   21 1
  10    5    6 ar
  11    5   32 1
  12    6   33 1
  13    7    8 1
  14    7   34 1
  15    8    9 2
  16    8   12 1
  17    9   10 1
  18    9   14 1
  19   10   11 2
  20   10   13 1
  21   11   12 1
  22   13   35 1
  23   14   15 1
  24   14   16 2
  25   15   17 1
  26   15   36 1
  27   16   37 1
  28   17   18 1
  29   17   19 1
  30   17   38 1
  31   18   39 1
  32   18   40 1
  33   18   41 1
  34   19   20 1
  35   19   42 1
  36   19   43 1
  37   20   44 1
  38   21   22 1
  39   22   23 ar
  40   22   26 ar
  41   23   24 ar
  42   23   45 1
  43   24   25 ar
  44   24   28 1
  45   25   27 ar
  46   25   46 1
  47   26   27 ar
  48   26   47 1
  49   27   29 1

#	End of record

