#	Name: ASD04930007
#	Creating user name:	WinNT
#	Creation time:	15. 06. 2019 20:56

#	Modifying user name:	WinNT
#	Modification time:	15. 06. 2019 20:56

#	Program:	/corina/corina34_cracker 3.40 0067  02.08.2006

@<TRIPOS>MOLECULE
ASD04930007
  60   61    0    0    0
SMALL
NO_CHARGES


@<TRIPOS>ATOM
   1 C1            -1.2283    -0.9335    -2.2218 C.ar    
   2 C2            -0.5532    -1.0646    -1.0166 C.ar    
   3 C3            -1.1013    -0.5819     0.1522 C.ar    
   4 C4            -2.3444     0.0443     0.1288 C.ar    
   5 C5            -3.0250     0.1749    -1.0950 C.ar    
   6 C6            -2.4471    -0.3181    -2.2702 C.ar    
   7 N7            -2.8999     0.5296     1.2949 N.am    
   8 C8            -4.0975     1.1389     1.3070 C.2     
   9 C9            -4.8644     1.3118     0.0740 C.2     
  10 C10           -4.3350     0.8335    -1.1269 C.2     
  11 O11           -5.0114     0.9734    -2.2860 O.3     
  12 O12           -4.5506     1.5525     2.3594 O.2     
  13 C13           -6.1722     1.9785     0.0979 C.2     
  14 N14           -7.3022     1.2489     0.0122 N.am    
  15 O15           -6.2360     3.1897     0.1952 O.2     
  16 N16           -8.5500     1.8719     0.1448 N.am    
  17 C17           -9.6800     1.1424     0.0590 C.2     
  18 C18          -11.0222     1.8125     0.2017 C.3     
  19 O19           -9.6166    -0.0535    -0.1330 O.2     
  20 C20          -12.1312     0.7673     0.0651 C.3     
  21 C21          -13.4939     1.4477     0.2100 C.3     
  22 C22          -14.6029     0.4025     0.0734 C.3     
  23 C23          -15.9656     1.0829     0.2183 C.3     
  24 C24          -17.0746     0.0377     0.0817 C.3     
  25 C25          -18.4373     0.7181     0.2266 C.3     
  26 C26          -19.5463    -0.3271     0.0900 C.3     
  27 C27          -20.9090     0.3533     0.2349 C.3     
  28 C28          -22.0180    -0.6919     0.0983 C.3     
  29 C29          -23.3807    -0.0115     0.2432 C.3     
  30 H30           -0.7850    -1.3168    -3.1289 H       
  31 H31            0.4113    -1.5501    -0.9942 H       
  32 H32           -0.5674    -0.6896     1.0848 H       
  33 H33           -2.9666    -0.2192    -3.2118 H       
  34 H34           -2.4132     0.4281     2.1278 H       
  35 H35           -5.8963     1.3493    -2.1821 H       
  36 H36           -7.2515     0.2925    -0.1414 H       
  37 H37           -8.6007     2.8283     0.2984 H       
  38 H38          -11.0890     2.2873     1.1806 H       
  39 H39          -11.1362     2.5670    -0.5766 H       
  40 H40          -12.0644     0.2925    -0.9137 H       
  41 H41          -12.0172     0.0128     0.8435 H       
  42 H42          -13.5607     1.9225     1.1889 H       
  43 H43          -13.6079     2.2022    -0.5683 H       
  44 H44          -14.5361    -0.0723    -0.9054 H       
  45 H45          -14.4889    -0.3520     0.8518 H       
  46 H46          -16.0324     1.5577     1.1972 H       
  47 H47          -16.0796     1.8374    -0.5600 H       
  48 H48          -17.0078    -0.4371    -0.8972 H       
  49 H49          -16.9606    -0.7168     0.8601 H       
  50 H50          -18.5041     1.1929     1.2055 H       
  51 H51          -18.5513     1.4726    -0.5518 H       
  52 H52          -19.4795    -0.8019    -0.8889 H       
  53 H53          -19.4323    -1.0816     0.8684 H       
  54 H54          -20.9758     0.8281     1.2138 H       
  55 H55          -21.0230     1.1078    -0.5435 H       
  56 H56          -21.9512    -1.1667    -0.8806 H       
  57 H57          -21.9040    -1.4464     0.8766 H       
  58 H58          -23.4475     0.4633     1.2220 H       
  59 H59          -23.4946     0.7430    -0.5352 H       
  60 H60          -24.1707    -0.7562     0.1459 H       
@<TRIPOS>BOND
   1    1    2 ar
   2    1   30 1
   3    1    6 ar
   4    2    3 ar
   5    2   31 1
   6    3    4 ar
   7    3   32 1
   8    4    5 ar
   9    4    7 1
  10    5    6 ar
  11    5   10 1
  12    6   33 1
  13    7    8 am
  14    7   34 1
  15    8    9 1
  16    8   12 2
  17    9   10 2
  18    9   13 1
  19   10   11 1
  20   11   35 1
  21   13   14 am
  22   13   15 2
  23   14   16 1
  24   14   36 1
  25   16   17 am
  26   16   37 1
  27   17   18 1
  28   17   19 2
  29   18   20 1
  30   18   38 1
  31   18   39 1
  32   20   21 1
  33   20   40 1
  34   20   41 1
  35   21   22 1
  36   21   42 1
  37   21   43 1
  38   22   23 1
  39   22   44 1
  40   22   45 1
  41   23   24 1
  42   23   46 1
  43   23   47 1
  44   24   25 1
  45   24   48 1
  46   24   49 1
  47   25   26 1
  48   25   50 1
  49   25   51 1
  50   26   27 1
  51   26   52 1
  52   26   53 1
  53   27   28 1
  54   27   54 1
  55   27   55 1
  56   28   29 1
  57   28   56 1
  58   28   57 1
  59   29   58 1
  60   29   59 1
  61   29   60 1

#	End of record

