#	Name: ASD01870694
#	Creating user name:	WinNT
#	Creation time:	15. 06. 2019 19:39

#	Modifying user name:	WinNT
#	Modification time:	15. 06. 2019 19:39

#	Program:	/corina/corina34_cracker 3.40 0067  02.08.2006

@<TRIPOS>MOLECULE
ASD01870694
  46   49    0    0    0
SMALL
NO_CHARGES


@<TRIPOS>ATOM
   1 C1            -0.0366     1.5085    -0.0076 C.3     
   2 C2             0.0046    -0.0217    -0.0085 C.3     
   3 N3             0.9775    -0.4713     0.9987 N.am    
   4 C4             2.3936    -0.1299     0.7894 C.3     
   5 C5             1.3854     2.0451    -0.0086 C.2     
   6 C6             0.5844    -1.1737     2.0797 C.2     
   7 C7             1.5920    -1.7266     3.0078 C.ar    
   8 O8            -0.5993    -1.3522     2.2911 O.2     
   9 C9             1.7429     3.3969    -0.3911 C.2     
  10 C10            2.4558     1.3203     0.3468 C.2     
  11 S11            3.9215     2.2785     0.2278 S.3     
  12 C12            3.0715     3.6530    -0.3086 C.2     
  13 C13            0.7828     4.3702    -0.8171 C.1     
  14 N14            0.0211     5.1423    -1.1550 N.1     
  15 C15            3.7102     4.9755    -0.6465 C.3     
  16 N16            3.7564     5.8161     0.5525 N.pl3   
  17 C17            4.3086     7.0973     0.4864 C.ar    
  18 C18            1.3254    -1.7859     4.3773 C.ar    
  19 C19            2.2689    -2.3032     5.2388 C.ar    
  20 C20            3.4809    -2.7641     4.7478 C.ar    
  21 C21            3.7509    -2.7075     3.3890 C.ar    
  22 C22            2.8123    -2.1970     2.5181 C.ar    
  23 C23            4.8093     7.5782    -0.7168 C.ar    
  24 C24            4.3532     7.8956     1.6223 C.ar    
  25 C25            4.9000     9.1619     1.5534 C.ar    
  26 C26            5.4023     9.6356     0.3552 C.ar    
  27 C27            5.3547     8.8455    -0.7787 C.ar    
  28 F28            4.4024    -3.2697     5.5966 F       
  29 H29           -0.5591     1.8594    -0.8975 H       
  30 H30           -0.5575     1.8584     0.8837 H       
  31 H31           -0.9824    -0.4138     0.2366 H       
  32 H32            0.3071    -0.3783    -0.9931 H       
  33 H33            2.9459    -0.2564     1.7205 H       
  34 H34            2.8181    -0.7709     0.0167 H       
  35 H35            4.7234     4.8070    -1.0114 H       
  36 H36            3.1245     5.4752    -1.4181 H       
  37 H37            3.4034     5.4828     1.3923 H       
  38 H38            0.3818    -1.4269     4.7608 H       
  39 H39            2.0638    -2.3493     6.2982 H       
  40 H40            4.6967    -3.0675     3.0118 H       
  41 H41            3.0218    -2.1575     1.4593 H       
  42 H42            4.7724     6.9617    -1.6028 H       
  43 H43            3.9604     7.5265     2.5582 H       
  44 H44            4.9350     9.7831     2.4362 H       
  45 H45            5.8287    10.6265     0.3039 H       
  46 H46            5.7441     9.2200    -1.7138 H       
@<TRIPOS>BOND
   1    1    2 1
   2    1    5 1
   3    1   29 1
   4    1   30 1
   5    2    3 1
   6    2   31 1
   7    2   32 1
   8    3    4 1
   9    3    6 am
  10    4   10 1
  11    4   33 1
  12    4   34 1
  13    5   10 2
  14    5    9 1
  15    6    7 1
  16    6    8 2
  17    7   18 ar
  18    7   22 ar
  19    9   12 2
  20    9   13 1
  21   10   11 1
  22   11   12 1
  23   12   15 1
  24   13   14 3
  25   15   16 1
  26   15   35 1
  27   15   36 1
  28   16   17 1
  29   16   37 1
  30   17   24 ar
  31   17   23 ar
  32   18   19 ar
  33   18   38 1
  34   19   20 ar
  35   19   39 1
  36   20   21 ar
  37   20   28 1
  38   21   22 ar
  39   21   40 1
  40   22   41 1
  41   23   27 ar
  42   23   42 1
  43   24   25 ar
  44   24   43 1
  45   25   26 ar
  46   25   44 1
  47   26   27 ar
  48   26   45 1
  49   27   46 1

#	End of record

