#	Name: ASD01917439
#	Creating user name:	WinNT
#	Creation time:	15. 06. 2019 20:09

#	Modifying user name:	WinNT
#	Modification time:	15. 06. 2019 20:09

#	Program:	/corina/corina34_cracker 3.40 0067  02.08.2006

@<TRIPOS>MOLECULE
ASD01917439
  41   45    0    0    0
SMALL
NO_CHARGES


@<TRIPOS>ATOM
   1 C1            -0.0171     1.4097     0.0098 C.ar    
   2 C2             0.0021    -0.0041     0.0020 C.ar    
   3 C3            -1.1912    -0.7249     0.0381 C.ar    
   4 C4            -2.3839    -0.0625     0.0701 C.ar    
   5 C5            -2.4210     1.3388     0.0639 C.ar    
   6 C6            -1.2414     2.0760     0.0353 C.ar    
   7 N7             1.1596     2.0759     0.0021 N.2     
   8 C8             2.3186     1.4678    -0.0335 C.2     
   9 N9             2.4204     0.1188    -0.1398 N.am    
  10 C10            1.3109    -0.6638    -0.0570 C.2     
  11 O11            1.4015    -1.8775    -0.0321 O.2     
  12 C12           -3.7220     2.0379     0.0884 C.2     
  13 N13           -3.9058     3.3395     0.0854 N.2     
  14 N14           -5.1671     3.5923     0.1114 N.2     
  15 C15           -5.8379     2.4624     0.1321 C.2     
  16 O16           -4.9387     1.4581     0.1121 O.3     
  17 C17           -7.3083     2.3190     0.1624 C.ar    
  18 N18           -7.8523     1.1071     0.1721 N.ar    
  19 C19           -9.1578     0.9371     0.1989 C.ar    
  20 C20          -10.0157     2.0222     0.2182 C.ar    
  21 C21           -9.4901     3.3067     0.2090 C.ar    
  22 C22           -8.1147     3.4578     0.1864 C.ar    
  23 C23            3.5385     2.3508     0.0996 C.3     
  24 C24            4.7626     1.6633    -0.5018 C.3     
  25 C25            4.8688     0.2613     0.1122 C.3     
  26 C26            3.6898    -0.5678    -0.3910 C.3     
  27 H27           -1.1715    -1.8047     0.0404 H       
  28 H28           -3.3069    -0.6225     0.1002 H       
  29 H29           -1.2739     3.1555     0.0325 H       
  30 H30           -9.5644    -0.0634     0.2057 H       
  31 H31          -11.0849     1.8711     0.2398 H       
  32 H32          -10.1400     4.1692     0.2233 H       
  33 H33           -7.6719     4.4428     0.1791 H       
  34 H34            3.3610     3.2916    -0.4214 H       
  35 H35            3.7219     2.5554     1.1544 H       
  36 H36            4.6468     1.5843    -1.5828 H       
  37 H37            5.6594     2.2369    -0.2678 H       
  38 H38            5.8047    -0.2053    -0.1953 H       
  39 H39            4.8318     0.3318     1.1993 H       
  40 H40            3.6841    -1.5298     0.1215 H       
  41 H41            3.8008    -0.7346    -1.4624 H       
@<TRIPOS>BOND
   1    1    2 ar
   2    1    7 1
   3    1    6 ar
   4    2    3 ar
   5    2   10 1
   6    3    4 ar
   7    3   27 1
   8    4    5 ar
   9    4   28 1
  10    5    6 ar
  11    5   12 1
  12    6   29 1
  13    7    8 2
  14    8    9 1
  15    8   23 1
  16    9   10 am
  17    9   26 1
  18   10   11 2
  19   12   13 2
  20   12   16 1
  21   13   14 1
  22   14   15 2
  23   15   16 1
  24   15   17 1
  25   17   18 ar
  26   17   22 ar
  27   18   19 ar
  28   19   20 ar
  29   19   30 1
  30   20   21 ar
  31   20   31 1
  32   21   22 ar
  33   21   32 1
  34   22   33 1
  35   23   24 1
  36   23   34 1
  37   23   35 1
  38   24   25 1
  39   24   36 1
  40   24   37 1
  41   25   26 1
  42   25   38 1
  43   25   39 1
  44   26   40 1
  45   26   41 1

#	End of record

