#	Name: ASD01810725
#	Creating user name:	WinNT
#	Creation time:	15. 06. 2019 19:25

#	Modifying user name:	WinNT
#	Modification time:	15. 06. 2019 19:25

#	Program:	/corina/corina34_cracker 3.40 0067  02.08.2006

@<TRIPOS>MOLECULE
ASD01810725
  48   52    0    0    0
SMALL
NO_CHARGES


@<TRIPOS>ATOM
   1 N1            -0.0153     1.2784     0.0091 N.pl3   
   2 N2             0.0021    -0.0041     0.0020 N.2     
   3 C3             1.0992    -0.7157    -0.0123 C.2     
   4 C4             2.4158    -0.0317    -0.0211 C.2     
   5 C5             2.3886     1.4421    -0.0134 C.ar    
   6 C6             3.5453     2.2104    -0.0206 C.ar    
   7 C7             3.4472     3.5871    -0.0130 C.ar    
   8 C8             2.2029     4.1987     0.0022 C.ar    
   9 C9             1.0468     3.4466     0.0100 C.ar    
  10 C10            1.1227     2.0587     0.0024 C.ar    
  11 N11            2.7672    -2.2289    -0.0356 N.am    
  12 N12            3.3339    -0.9519    -0.0344 N.2     
  13 C13            1.4195    -2.1449    -0.0225 C.2     
  14 O14            0.6279    -3.0727    -0.0198 O.2     
  15 C15            3.4932    -3.4254    -0.0489 C.ar    
  16 C16            4.4346    -3.6574    -1.0438 C.ar    
  17 C17            5.1495    -4.8387    -1.0538 C.ar    
  18 C18            4.9289    -5.7907    -0.0749 C.ar    
  19 C19            3.9923    -5.5631     0.9165 C.ar    
  20 C20            3.2782    -4.3809     0.9358 C.ar    
  21 C21            6.1709    -5.0912    -2.1327 C.3     
  22 C22            4.6750    -2.6212    -2.1113 C.3     
  23 C23           -1.3160     1.9525     0.0188 C.3     
  24 C24           -2.5271     1.2439    -2.0599 C.ar    
  25 C25           -1.7686     2.1913    -1.3987 C.ar    
  26 C26           -1.4295     3.3645    -2.0554 C.ar    
  27 C27           -1.8679     3.5418    -3.3585 C.ar    
  28 C28           -2.6237     2.5495    -3.9561 C.ar    
  29 N29           -2.9273     1.4456    -3.3000 N.ar    
  30 Br30          -3.2294     2.7777    -5.7329 Br      
  31 H31            4.5146     1.7342    -0.0318 H       
  32 H32            4.3430     4.1903    -0.0186 H       
  33 H33            2.1382     5.2768     0.0084 H       
  34 H34            0.0838     3.9354     0.0224 H       
  35 H35            5.4891    -6.7139    -0.0852 H       
  36 H36            3.8219    -6.3087     1.6789 H       
  37 H37            2.5500    -4.2018     1.7130 H       
  38 H38            7.1423    -4.7183    -1.8079 H       
  39 H39            6.2388    -6.1619    -2.3254 H       
  40 H40            5.8705    -4.5762    -3.0451 H       
  41 H41            5.4579    -1.9372    -1.7839 H       
  42 H42            4.9850    -3.1140    -3.0328 H       
  43 H43            3.7558    -2.0630    -2.2893 H       
  44 H44           -2.0457     1.3267     0.5326 H       
  45 H45           -1.2267     2.9070     0.5374 H       
  46 H46           -2.7913     0.3257    -1.5564 H       
  47 H47           -0.8381     4.1224    -1.5633 H       
  48 H48           -1.6227     4.4435    -3.9001 H       
@<TRIPOS>BOND
   1    1    2 1
   2    1   10 1
   3    1   23 1
   4    2    3 2
   5    3    4 1
   6    3   13 1
   7    4    5 1
   8    4   12 2
   9    5    6 ar
  10    5   10 ar
  11    6    7 ar
  12    6   31 1
  13    7    8 ar
  14    7   32 1
  15    8    9 ar
  16    8   33 1
  17    9   10 ar
  18    9   34 1
  19   11   12 1
  20   11   13 am
  21   11   15 1
  22   13   14 2
  23   15   16 ar
  24   15   20 ar
  25   16   17 ar
  26   16   22 1
  27   17   18 ar
  28   17   21 1
  29   18   19 ar
  30   18   35 1
  31   19   20 ar
  32   19   36 1
  33   20   37 1
  34   21   38 1
  35   21   39 1
  36   21   40 1
  37   22   41 1
  38   22   42 1
  39   22   43 1
  40   23   25 1
  41   23   44 1
  42   23   45 1
  43   24   25 ar
  44   24   29 ar
  45   24   46 1
  46   25   26 ar
  47   26   27 ar
  48   26   47 1
  49   27   28 ar
  50   27   48 1
  51   28   29 ar
  52   28   30 1

#	End of record

