#	Name: ASD04910004
#	Creating user name:	WinNT
#	Creation time:	15. 06. 2019 20:55

#	Modifying user name:	WinNT
#	Modification time:	15. 06. 2019 20:55

#	Program:	/corina/corina34_cracker 3.40 0067  02.08.2006

@<TRIPOS>MOLECULE
ASD04910004
  72   76    0    0    0
SMALL
NO_CHARGES


@<TRIPOS>ATOM
   1 C1            -0.0781     1.5966    -0.0180 C.3     
   2 O2            -0.0486     0.1681     0.0039 O.3     
   3 C3             0.5663    -0.4528    -1.0381 C.ar    
   4 C4             1.1287     0.2964    -2.0586 C.ar    
   5 C5             1.7536    -0.3365    -3.1174 C.ar    
   6 C6             1.8185    -1.7164    -3.1608 C.ar    
   7 C7             1.2591    -2.4702    -2.1454 C.ar    
   8 C8             0.6371    -1.8424    -1.0787 C.ar    
   9 O9             0.0865    -2.5822    -0.0793 O.3     
  10 C10            0.1861    -4.0032    -0.1936 C.3     
  11 C11            2.3648     0.4801    -4.2267 C.3     
  12 C12            3.8682     0.1869    -4.3197 C.3     
  13 C13            4.4792     1.1698    -5.3141 C.3     
  14 C14            3.7041     1.1815    -6.6098 C.2     
  15 C15            2.4847     0.7087    -6.7133 C.2     
  16 C16            1.7294     0.0970    -5.5607 C.3     
  17 N17            1.8179     0.7530    -7.9417 N.pl3   
  18 C18            2.5171     0.8431    -9.1089 C.2     
  19 C19            3.7732     1.3284    -9.0935 C.2     
  20 C20            4.4045     1.7782    -7.8107 C.3     
  21 C21            4.3325     3.2811    -7.7267 C.ar    
  22 C22            5.4941     4.0247    -7.6341 C.ar    
  23 C23            5.4281     5.4033    -7.5571 C.ar    
  24 C24            4.2004     6.0384    -7.5730 C.ar    
  25 C25            3.0388     5.2949    -7.6664 C.ar    
  26 C26            3.1050     3.9166    -7.7479 C.ar    
  27 C27            4.1284     7.5413    -7.4879 C.3     
  28 C28            4.5047     1.4142   -10.3009 C.2     
  29 O29            3.9982     1.0503   -11.3470 O.2     
  30 N30            5.7624     1.8987   -10.2938 N.am    
  31 C31            6.5167     1.9058   -11.4739 C.ar    
  32 C32            5.8803     1.9333   -12.7059 C.ar    
  33 C33            6.6271     1.9407   -13.8692 C.ar    
  34 C34            8.0079     1.9202   -13.8083 C.ar    
  35 C35            8.6496     1.8923   -12.5835 C.ar    
  36 C36            7.9089     1.8910   -11.4133 C.ar    
  37 O37            8.5384     1.8640   -10.2082 O.3     
  38 C38            9.9671     1.8379   -10.2230 C.3     
  39 H39            0.9418     1.9810    -0.0273 H       
  40 H40           -0.6023     1.9355    -0.9115 H       
  41 H41           -0.5964     1.9629     0.8682 H       
  42 H42            1.0787     1.3748    -2.0274 H       
  43 H43            2.3067    -2.2070    -3.9898 H       
  44 H44            1.3112    -3.5484    -2.1817 H       
  45 H45            1.2365    -4.2923    -0.2274 H       
  46 H46           -0.2920    -4.4713     0.6669 H       
  47 H47           -0.3103    -4.3298    -1.1073 H       
  48 H48            2.2072     1.5412    -4.0334 H       
  49 H49            4.3303     0.3175    -3.3412 H       
  50 H50            4.0236    -0.8342    -4.6681 H       
  51 H51            4.4680     2.1701    -4.8814 H       
  52 H52            5.5102     0.8798    -5.5164 H       
  53 H53            1.7376    -0.9882    -5.6628 H       
  54 H54            0.6983     0.4499    -5.5806 H       
  55 H55            0.8488     0.7190    -7.9636 H       
  56 H56            2.0670     0.5274   -10.0385 H       
  57 H57            5.4504     1.4717    -7.8017 H       
  58 H58            6.4533     3.5285    -7.6217 H       
  59 H59            6.3357     5.9841    -7.4840 H       
  60 H60            2.0796     5.7911    -7.6785 H       
  61 H61            2.1974     3.3357    -7.8209 H       
  62 H62            4.1554     7.9637    -8.4924 H       
  63 H63            3.2007     7.8333    -6.9958 H       
  64 H64            4.9769     7.9138    -6.9141 H       
  65 H65            6.1451     2.2426    -9.4715 H       
  66 H66            4.8016     1.9486   -12.7564 H       
  67 H67            6.1305     1.9621   -14.8280 H       
  68 H68            8.5873     1.9257   -14.7198 H       
  69 H69            9.7286     1.8760   -12.5395 H       
  70 H70           10.3407     1.8180    -9.1993 H       
  71 H71           10.3087     0.9482   -10.7519 H       
  72 H72           10.3415     2.7277   -10.7292 H       
@<TRIPOS>BOND
   1    1    2 1
   2    1   39 1
   3    1   40 1
   4    1   41 1
   5    2    3 1
   6    3    4 ar
   7    3    8 ar
   8    4    5 ar
   9    4   42 1
  10    5    6 ar
  11    5   11 1
  12    6    7 ar
  13    6   43 1
  14    7    8 ar
  15    7   44 1
  16    8    9 1
  17    9   10 1
  18   10   45 1
  19   10   46 1
  20   10   47 1
  21   11   12 1
  22   11   16 1
  23   11   48 1
  24   12   13 1
  25   12   49 1
  26   12   50 1
  27   13   14 1
  28   13   51 1
  29   13   52 1
  30   14   15 2
  31   14   20 1
  32   15   16 1
  33   15   17 1
  34   16   53 1
  35   16   54 1
  36   17   18 1
  37   17   55 1
  38   18   19 2
  39   18   56 1
  40   19   20 1
  41   19   28 1
  42   20   21 1
  43   20   57 1
  44   21   22 ar
  45   21   26 ar
  46   22   23 ar
  47   22   58 1
  48   23   24 ar
  49   23   59 1
  50   24   25 ar
  51   24   27 1
  52   25   26 ar
  53   25   60 1
  54   26   61 1
  55   27   62 1
  56   27   63 1
  57   27   64 1
  58   28   29 2
  59   28   30 am
  60   30   31 1
  61   30   65 1
  62   31   32 ar
  63   31   36 ar
  64   32   33 ar
  65   32   66 1
  66   33   34 ar
  67   33   67 1
  68   34   35 ar
  69   34   68 1
  70   35   36 ar
  71   35   69 1
  72   36   37 1
  73   37   38 1
  74   38   70 1
  75   38   71 1
  76   38   72 1

#	End of record

