#	Name: ASD01152529
#	Creating user name:	WinNT
#	Creation time:	15. 06. 2019 19:06

#	Modifying user name:	WinNT
#	Modification time:	15. 06. 2019 19:06

#	Program:	/corina/corina34_cracker 3.40 0067  02.08.2006

@<TRIPOS>MOLECULE
ASD01152529
  54   56    0    0    0
SMALL
NO_CHARGES


@<TRIPOS>ATOM
   1 C1             0.1107     1.1569    -0.6965 C.2     
   2 N2             0.0184    -0.1438    -0.6179 N.2     
   3 N3            -1.1208    -0.7663    -0.1081 N.am    
   4 C4            -2.2618    -0.0996     0.1332 C.2     
   5 C5            -2.3931     1.3532    -0.2595 C.3     
   6 C6            -1.0091     1.9734    -0.2041 C.2     
   7 C7            -2.9569     1.4574    -1.6780 C.3     
   8 O8            -0.8367     3.0970     0.2214 O.2     
   9 C9            -1.0736    -2.1392     0.1619 C.ar    
  10 O10           -3.1905    -0.6665     0.6685 O.2     
  11 C11           -3.2001     2.9055    -2.0168 C.ar    
  12 C12           -0.0101    -2.6697     0.8787 C.ar    
  13 C13           -2.0943    -2.9704    -0.2825 C.ar    
  14 C14           -2.0494    -4.3253    -0.0164 C.ar    
  15 C15           -0.9885    -4.8585     0.6937 C.ar    
  16 C16            0.0336    -4.0301     1.1451 C.ar    
  17 C17           -2.2000     3.6530    -2.6073 C.ar    
  18 C18           -4.4263     3.4826    -1.7412 C.ar    
  19 C19           -4.6542     4.8108    -2.0506 C.ar    
  20 C20           -3.6564     5.5661    -2.6372 C.ar    
  21 C21           -2.4247     4.9874    -2.9197 C.ar    
  22 F22           -0.9475    -6.1838     0.9528 F       
  23 Cl23          -3.9433     7.2334    -3.0266 Cl      
  24 N24           -1.4130     5.7479    -3.5124 N.3     
  25 C25           -0.2230     5.8023    -2.6528 C.3     
  26 C26           -1.0766     5.2293    -4.8450 C.3     
  27 N27            1.1054    -4.5690     1.8677 N.am    
  28 C28            1.7698    -3.8055     2.7576 C.2     
  29 O29            1.5003    -2.6279     2.8670 O.2     
  30 C30            2.8477    -4.4147     3.6167 C.3     
  31 O31            1.2204     1.7434    -1.2172 O.3     
  32 C32            2.2629     0.8753    -1.6663 C.3     
  33 H33           -3.0536     1.8662     0.4395 H       
  34 H34           -2.2432     1.0339    -2.3847 H       
  35 H35           -3.8963     0.9077    -1.7370 H       
  36 H36            0.7822    -2.0243     1.2282 H       
  37 H37           -2.9241    -2.5569    -0.8365 H       
  38 H38           -2.8440    -4.9694    -0.3629 H       
  39 H39           -1.2441     3.2003    -2.8255 H       
  40 H40           -5.2079     2.8943    -1.2835 H       
  41 H41           -5.6130     5.2584    -1.8340 H       
  42 H42            0.1511     4.7922    -2.4860 H       
  43 H43            0.5486     6.4001    -3.1378 H       
  44 H44           -0.4859     6.2548    -1.6966 H       
  45 H45           -1.9600     5.2653    -5.4825 H       
  46 H46           -0.2869     5.8393    -5.2835 H       
  47 H47           -0.7333     4.1984    -4.7576 H       
  48 H48            1.3695    -5.4918     1.7277 H       
  49 H49            2.9468    -5.4738     3.3786 H       
  50 H50            3.7941    -3.9091     3.4252 H       
  51 H51            2.5816    -4.3020     4.6677 H       
  52 H52            3.0878     1.4705    -2.0578 H       
  53 H53            2.6160     0.2696    -0.8317 H       
  54 H54            1.8800     0.2238    -2.4518 H       
@<TRIPOS>BOND
   1    1    2 2
   2    1   31 1
   3    1    6 1
   4    2    3 1
   5    3    4 am
   6    3    9 1
   7    4    5 1
   8    4   10 2
   9    5    6 1
  10    5    7 1
  11    5   33 1
  12    6    8 2
  13    7   11 1
  14    7   34 1
  15    7   35 1
  16    9   12 ar
  17    9   13 ar
  18   11   17 ar
  19   11   18 ar
  20   12   16 ar
  21   12   36 1
  22   13   14 ar
  23   13   37 1
  24   14   15 ar
  25   14   38 1
  26   15   16 ar
  27   15   22 1
  28   16   27 1
  29   17   21 ar
  30   17   39 1
  31   18   19 ar
  32   18   40 1
  33   19   20 ar
  34   19   41 1
  35   20   21 ar
  36   20   23 1
  37   21   24 1
  38   24   25 1
  39   24   26 1
  40   25   42 1
  41   25   43 1
  42   25   44 1
  43   26   45 1
  44   26   46 1
  45   26   47 1
  46   27   28 am
  47   27   48 1
  48   28   29 2
  49   28   30 1
  50   30   49 1
  51   30   50 1
  52   30   51 1
  53   31   32 1
  54   32   52 1
  55   32   53 1
  56   32   54 1

#	End of record

