#	Name: ASD01914032
#	Creating user name:	WinNT
#	Creation time:	15. 06. 2019 20:02

#	Modifying user name:	WinNT
#	Modification time:	15. 06. 2019 20:02

#	Program:	/corina/corina34_cracker 3.40 0067  02.08.2006

@<TRIPOS>MOLECULE
ASD01914032
  55   57    0    0    0
SMALL
NO_CHARGES


@<TRIPOS>ATOM
   1 C1            -0.0167     1.3779     0.0096 C.ar    
   2 C2             0.0021    -0.0041     0.0020 C.ar    
   3 C3             1.2071    -0.6822    -0.0127 C.ar    
   4 C4             2.3801     1.4154    -0.0131 C.ar    
   5 C5             1.1696     2.0886     0.0021 C.ar    
   6 O6             3.5476     2.1129    -0.0210 O.3     
   7 C7             3.4517     3.5386    -0.0128 C.3     
   8 C8             4.8355     4.1353    -0.0233 C.ar    
   9 N9             4.9765     5.4470    -0.0180 N.ar    
  10 C10            6.1627     6.0190    -0.0267 C.ar    
  11 C11            7.3235     5.2451    -0.0424 C.ar    
  12 C12            7.2061     3.8498    -0.0483 C.ar    
  13 C13            5.9372     3.2985    -0.0326 C.ar    
  14 C14            8.6551     5.8874    -0.0531 C.2     
  15 N15            8.7550     7.2315    -0.0477 N.am    
  16 O16            9.6597     5.2034    -0.0667 O.2     
  17 C17            2.3990     0.0236    -0.0204 C.ar    
  18 O18            3.5850    -0.6417    -0.0344 O.3     
  19 C19            3.5278    -2.0696    -0.0406 C.3     
  20 C20           10.0744     7.8680    -0.0583 C.3     
  21 C21            9.9595     9.2699    -0.6601 C.3     
  22 C22           11.3375     9.9347    -0.6712 C.3     
  23 C23           11.2226    11.3367    -1.2729 C.3     
  24 C24           10.6938    11.2352    -2.7051 C.3     
  25 C25            9.3158    10.5705    -2.6940 C.3     
  26 C26            9.4307     9.1685    -2.0922 C.3     
  27 C27           10.6032     7.9694     1.3738 C.3     
  28 H28           -0.9599     1.9039     0.0169 H       
  29 H29           -0.9265    -0.5556     0.0080 H       
  30 H30            1.2190    -1.7621    -0.0179 H       
  31 H31            1.1521     3.1684     0.0074 H       
  32 H32            2.9059     3.8711    -0.8958 H       
  33 H33            2.9233     3.8621     0.8840 H       
  34 H34            6.2376     7.0964    -0.0219 H       
  35 H35            8.0835     3.2201    -0.0604 H       
  36 H36            5.8080     2.2263    -0.0366 H       
  37 H37            7.9532     7.7773    -0.0368 H       
  38 H38            4.5400    -2.4737    -0.0518 H       
  39 H39            3.0080    -2.4163     0.8526 H       
  40 H40            2.9916    -2.4079    -0.9273 H       
  41 H41           10.7613     7.2704    -0.6577 H       
  42 H42            9.2727     9.8675    -0.0606 H       
  43 H43           11.7143    10.0070     0.3491 H       
  44 H44           12.0244     9.3372    -1.2706 H       
  45 H45           10.5358    11.9342    -0.6735 H       
  46 H46           12.2044    11.8102    -1.2808 H       
  47 H47           10.6120    12.2340    -3.1338 H       
  48 H48           11.3807    10.6377    -3.3045 H       
  49 H49            8.6290    11.1680    -2.0945 H       
  50 H50            8.9391    10.4982    -3.7142 H       
  51 H51           10.1175     8.5709    -2.6916 H       
  52 H52            8.4490     8.6949    -2.0843 H       
  53 H53            9.9164     8.5670     1.9733 H       
  54 H54           10.6851     6.9706     1.8025 H       
  55 H55           11.5850     8.4430     1.3659 H       
@<TRIPOS>BOND
   1    1    2 ar
   2    1    5 ar
   3    1   28 1
   4    2    3 ar
   5    2   29 1
   6    3   17 ar
   7    3   30 1
   8    4    5 ar
   9    4    6 1
  10    4   17 ar
  11    5   31 1
  12    6    7 1
  13    7    8 1
  14    7   32 1
  15    7   33 1
  16    8    9 ar
  17    8   13 ar
  18    9   10 ar
  19   10   11 ar
  20   10   34 1
  21   11   12 ar
  22   11   14 1
  23   12   13 ar
  24   12   35 1
  25   13   36 1
  26   14   15 am
  27   14   16 2
  28   15   20 1
  29   15   37 1
  30   17   18 1
  31   18   19 1
  32   19   38 1
  33   19   39 1
  34   19   40 1
  35   20   21 1
  36   20   27 1
  37   20   41 1
  38   21   22 1
  39   21   26 1
  40   21   42 1
  41   22   23 1
  42   22   43 1
  43   22   44 1
  44   23   24 1
  45   23   45 1
  46   23   46 1
  47   24   25 1
  48   24   47 1
  49   24   48 1
  50   25   26 1
  51   25   49 1
  52   25   50 1
  53   26   51 1
  54   26   52 1
  55   27   53 1
  56   27   54 1
  57   27   55 1

#	End of record

