#	Name: ASD09740697
#	Creating user name:	WinNT
#	Creation time:	15. 06. 2019 21:23

#	Modifying user name:	WinNT
#	Modification time:	15. 06. 2019 21:23

#	Program:	/corina/corina34_cracker 3.40 0067  02.08.2006

@<TRIPOS>MOLECULE
ASD09740697
  62   65    0    0    0
SMALL
NO_CHARGES


@<TRIPOS>ATOM
   1 C1             0.5738     1.1441    -3.3721 C.2     
   2 C2             0.1442    -0.2139    -2.8798 C.3     
   3 O3             1.7165     1.5070    -3.2230 O.2     
   4 O4            -0.3118     1.9482    -3.9812 O.3     
   5 S5             1.5581    -1.0553    -2.1159 S.o2    
   6 O6             2.5136    -1.4202    -3.1024 O.2     
   7 O7             1.9526    -0.3868    -0.9257 O.2     
   8 N8             0.9437    -2.4998    -1.5885 N.am    
   9 C9             0.4560    -3.4855    -2.5563 C.3     
  10 C10            1.3278    -4.7584    -2.5100 C.3     
  11 C11            0.5680    -5.6422    -1.4981 C.3     
  12 C12           -0.8720    -5.1824    -1.5743 C.ar    
  13 C13           -2.0463    -5.8052    -1.1409 C.ar    
  14 C14           -3.2764    -5.1744    -1.3237 C.ar    
  15 C15           -3.3280    -3.9371    -1.9323 C.ar    
  16 C16           -2.1644    -3.3258    -2.3594 C.ar    
  17 C17           -0.9368    -3.9455    -2.1813 C.ar    
  18 S18           -3.3590    -8.0570     0.1149 S.3     
  19 C19           -1.9840    -7.1310    -0.4901 C.2     
  20 N20           -0.9020    -7.8250    -0.2613 N.2     
  21 N21           -1.0328    -8.9433     0.3067 N.2     
  22 C22           -2.2413    -9.3242     0.6239 C.2     
  23 C23           -2.6076   -10.5915     1.2904 C.ar    
  24 C24           -1.6174   -11.5066     1.6386 C.ar    
  25 C25           -1.9686   -12.7004     2.2669 C.ar    
  26 C26           -3.3172   -12.9709     2.5438 C.ar    
  27 C27           -4.2954   -12.0519     2.1924 C.ar    
  28 C28           -3.9475   -10.8690     1.5763 C.ar    
  29 O29           -3.6648   -14.1313     3.1547 O.3     
  30 C30           -5.0390   -14.2894     3.5133 C.3     
  31 C31           -5.8213   -14.8243     2.3122 C.3     
  32 C32           -5.1521   -15.2770     4.6764 C.3     
  33 C33           -0.9568   -13.6472     2.6280 C.1     
  34 N34           -0.1542   -14.3984     2.9144 N.1     
  35 C35            0.1720     3.2418    -4.4294 C.3     
  36 C36           -0.9710     4.0111    -5.0947 C.3     
  37 H37           -0.6511    -0.0986    -2.1434 H       
  38 H38           -0.2208    -0.8059    -3.7191 H       
  39 H39            0.9067    -2.6933    -0.6387 H       
  40 H40            0.4570    -3.0628    -3.5610 H       
  41 H41            1.3680    -5.2365    -3.4887 H       
  42 H42            2.3300    -4.5288    -2.1481 H       
  43 H43            0.6452    -6.6923    -1.7802 H       
  44 H44            0.9610    -5.4899    -0.4929 H       
  45 H45           -4.1856    -5.6527    -0.9905 H       
  46 H46           -4.2791    -3.4459    -2.0755 H       
  47 H47           -2.2116    -2.3576    -2.8357 H       
  48 H48           -0.5812   -11.2924     1.4223 H       
  49 H49           -5.3329   -12.2622     2.4064 H       
  50 H50           -4.7134   -10.1559     1.3093 H       
  51 H51           -5.4492   -13.3254     3.8141 H       
  52 H52           -5.4110   -15.7883     2.0114 H       
  53 H53           -6.8695   -14.9448     2.5857 H       
  54 H54           -5.7407   -14.1207     1.4836 H       
  55 H55           -4.5948   -14.8960     5.5321 H       
  56 H56           -6.2003   -15.3976     4.9500 H       
  57 H57           -4.7419   -16.2411     4.3757 H       
  58 H58            0.5416     3.8077    -3.5743 H       
  59 H59            0.9798     3.0988    -5.1471 H       
  60 H60           -0.6079     4.9822    -5.4311 H       
  61 H61           -1.3406     3.4452    -5.9498 H       
  62 H62           -1.7788     4.1541    -4.3770 H       
@<TRIPOS>BOND
   1    1    2 1
   2    1    3 2
   3    1    4 1
   4    2    5 1
   5    2   37 1
   6    2   38 1
   7    4   35 1
   8    5    6 2
   9    5    7 2
  10    5    8 am
  11    8    9 1
  12    8   39 1
  13    9   10 1
  14    9   17 1
  15    9   40 1
  16   10   11 1
  17   10   41 1
  18   10   42 1
  19   11   12 1
  20   11   43 1
  21   11   44 1
  22   12   13 ar
  23   12   17 ar
  24   13   14 ar
  25   13   19 1
  26   14   15 ar
  27   14   45 1
  28   15   16 ar
  29   15   46 1
  30   16   17 ar
  31   16   47 1
  32   18   19 1
  33   18   22 1
  34   19   20 2
  35   20   21 1
  36   21   22 2
  37   22   23 1
  38   23   24 ar
  39   23   28 ar
  40   24   25 ar
  41   24   48 1
  42   25   26 ar
  43   25   33 1
  44   26   27 ar
  45   26   29 1
  46   27   28 ar
  47   27   49 1
  48   28   50 1
  49   29   30 1
  50   30   31 1
  51   30   32 1
  52   30   51 1
  53   31   52 1
  54   31   53 1
  55   31   54 1
  56   32   55 1
  57   32   56 1
  58   32   57 1
  59   33   34 3
  60   35   36 1
  61   35   58 1
  62   35   59 1
  63   36   60 1
  64   36   61 1
  65   36   62 1

#	End of record

