#	Name: ASD01913558
#	Creating user name:	WinNT
#	Creation time:	15. 06. 2019 20:01

#	Modifying user name:	WinNT
#	Modification time:	15. 06. 2019 20:01

#	Program:	/corina/corina34_cracker 3.40 0067  02.08.2006

@<TRIPOS>MOLECULE
ASD01913558
  34   36    0    0    0
SMALL
NO_CHARGES


@<TRIPOS>ATOM
   1 C1            -0.1007    -0.7315    -2.1557 C.ar    
   2 C2            -0.5345    -0.0408    -1.0287 C.ar    
   3 C3            -0.4958     1.3464    -1.0323 C.ar    
   4 N4            -0.0553     2.0042    -2.0862 N.ar    
   5 C5             0.3628     1.3797    -3.1699 C.ar    
   6 C6             0.3545    -0.0006    -3.2414 C.ar    
   7 C7            -1.0097    -2.0727     0.0074 C.ar    
   8 C8             0.1587    -2.8001     0.1899 C.ar    
   9 N9             0.1520    -4.1184     0.1466 N.ar    
  10 C10           -0.9518    -4.8027    -0.0696 C.ar    
  11 C11           -2.1695    -4.1483    -0.2631 C.ar    
  12 C12           -2.2002    -2.7499    -0.2238 C.ar    
  13 C13           -3.4066    -4.9201    -0.5055 C.2     
  14 N14           -3.3646    -6.2667    -0.5411 N.am    
  15 O15           -0.9899    -0.7148     0.0599 O.3     
  16 O16           -4.4617    -4.3402    -0.6728 O.2     
  17 C17           -4.5445    -6.9974    -0.6637 C.ar    
  18 C18           -4.5070    -8.3847    -0.5829 C.ar    
  19 C19           -5.6864    -9.0983    -0.7059 C.ar    
  20 C20           -6.8671    -8.3966    -0.9062 C.ar    
  21 C21           -6.8306    -7.0177    -0.9763 C.ar    
  22 N22           -5.6919    -6.3639    -0.8506 N.ar    
  23 H23           -0.1142    -1.8111    -2.1822 H       
  24 H24           -0.8305     1.8927    -0.1628 H       
  25 H25            0.7162     1.9547    -4.0131 H       
  26 H26            0.6992    -0.5035    -4.1328 H       
  27 H27            1.0872    -2.2786     0.3697 H       
  28 H28           -0.9146    -5.8817    -0.0979 H       
  29 H29           -3.1251    -2.2115    -0.3691 H       
  30 H30           -2.5130    -6.7272    -0.4815 H       
  31 H31           -3.5701    -8.8987    -0.4267 H       
  32 H32           -5.6880   -10.1767    -0.6477 H       
  33 H33           -7.8045    -8.9234    -1.0065 H       
  34 H34           -7.7468    -6.4675    -1.1324 H       
@<TRIPOS>BOND
   1    1    2 ar
   2    1    6 ar
   3    1   23 1
   4    2    3 ar
   5    2   15 1
   6    3    4 ar
   7    3   24 1
   8    4    5 ar
   9    5    6 ar
  10    5   25 1
  11    6   26 1
  12    7    8 ar
  13    7   12 ar
  14    7   15 1
  15    8    9 ar
  16    8   27 1
  17    9   10 ar
  18   10   11 ar
  19   10   28 1
  20   11   12 ar
  21   11   13 1
  22   12   29 1
  23   13   14 am
  24   13   16 2
  25   14   17 1
  26   14   30 1
  27   17   18 ar
  28   17   22 ar
  29   18   19 ar
  30   18   31 1
  31   19   20 ar
  32   19   32 1
  33   20   21 ar
  34   20   33 1
  35   21   22 ar
  36   21   34 1

#	End of record

