#	Name: ASD03490061
#	Creating user name:	WinNT
#	Creation time:	15. 06. 2019 20:42

#	Modifying user name:	WinNT
#	Modification time:	15. 06. 2019 20:42

#	Program:	/corina/corina34_cracker 3.40 0067  02.08.2006

@<TRIPOS>MOLECULE
ASD03490061
  58   58    0    0    0
SMALL
NO_CHARGES


@<TRIPOS>ATOM
   1 C1            -0.0184     1.5028     0.0103 C.3     
   2 C2             0.0021    -0.0041     0.0020 C.2     
   3 O3            -1.0848    -0.6879    -0.3889 O.3     
   4 C4            -0.8655     3.5197     1.2173 C.3     
   5 C5            -0.7345     1.9962     1.2691 C.3     
   6 C6            -0.9935    -2.1369    -0.3715 C.3     
   7 C7            -1.5817     4.0131     2.4761 C.3     
   8 N8            -1.7075     5.4759     2.4263 N.3     
   9 N9             1.3598     2.0112    -0.0001 N.3     
  10 O10            0.9968    -0.5967     0.3472 O.2     
  11 C11           -2.3186    -2.7371    -0.8457 C.3     
  12 C12           -2.2663    -4.2602    -0.7096 C.3     
  13 O13           -2.5368    -2.3884    -2.2142 O.3     
  14 C14           -3.5913    -4.8604    -1.1837 C.3     
  15 O15           -2.0480    -4.6088     0.6589 O.3     
  16 O16           -4.6707    -4.2608    -0.4642 O.3     
  17 C17           -3.5875    -6.3702    -0.9306 C.3     
  18 C18           -4.9394    -6.9542    -1.3521 C.3     
  19 C19           -6.0543    -6.2386    -0.5831 C.3     
  20 C20           -5.9629    -4.7339    -0.8496 C.3     
  21 O21           -6.1664    -4.4832    -2.2417 O.3     
  22 N22           -2.5187    -6.9952    -1.7137 N.am    
  23 C23           -1.9851    -8.1658    -1.3119 C.2     
  24 C24           -0.8856    -8.8087    -2.1175 C.3     
  25 O25           -2.3897    -8.7017    -0.3019 O.2     
  26 O26           -4.9716    -8.3508    -1.0513 O.3     
  27 C27           -7.0198    -4.0166    -0.0498 C.2     
  28 O28           -6.7069    -3.1222     0.6999 O.2     
  29 O29           -8.3087    -4.3715    -0.1703 O.3     
  30 H30           -0.5455     1.8639    -0.8728 H       
  31 H31            0.1265     3.9681     1.1643 H       
  32 H32           -1.4408     3.8051     0.3365 H       
  33 H33           -1.7266     1.5478     1.3221 H       
  34 H34           -0.1593     1.7108     2.1499 H       
  35 H35           -0.1909    -2.4583    -1.0353 H       
  36 H36           -0.7836    -2.4756     0.6430 H       
  37 H37           -2.5738     3.5647     2.5290 H       
  38 H38           -1.0064     3.7277     3.3568 H       
  39 H39           -2.1812     5.7696     1.5852 H       
  40 H40           -2.1776     5.8265     3.2473 H       
  41 H41            1.3732     3.0184    -0.0598 H       
  42 H42            1.8698     1.6901     0.8091 H       
  43 H43           -3.1334    -2.3457    -0.2366 H       
  44 H44           -1.4515    -4.6516    -1.3186 H       
  45 H45           -1.8488    -2.7052    -2.8153 H       
  46 H46           -3.7155    -4.6707    -2.2499 H       
  47 H47           -2.7361    -4.2921     1.2601 H       
  48 H48           -3.4228    -6.5614     0.1298 H       
  49 H49           -5.0824    -6.8070    -2.4226 H       
  50 H50           -7.0233    -6.6095    -0.9172 H       
  51 H51           -5.9395    -6.4271     0.4844 H       
  52 H52           -6.1220    -3.5480    -2.4836 H       
  53 H53           -2.1951    -6.5666    -2.5215 H       
  54 H54            0.0813    -8.4544    -1.7602 H       
  55 H55           -0.9395    -9.8916    -2.0063 H       
  56 H56           -1.0035    -8.5450    -3.1685 H       
  57 H57           -5.8007    -8.7861    -1.2925 H       
  58 H58           -8.9503    -3.8825     0.3630 H       
@<TRIPOS>BOND
   1    1    2 1
   2    1    9 1
   3    1    5 1
   4    1   30 1
   5    2    3 1
   6    2   10 2
   7    3    6 1
   8    4    5 1
   9    4    7 1
  10    4   31 1
  11    4   32 1
  12    5   33 1
  13    5   34 1
  14    6   11 1
  15    6   35 1
  16    6   36 1
  17    7    8 1
  18    7   37 1
  19    7   38 1
  20    8   39 1
  21    8   40 1
  22    9   41 1
  23    9   42 1
  24   11   12 1
  25   11   13 1
  26   11   43 1
  27   12   15 1
  28   12   14 1
  29   12   44 1
  30   13   45 1
  31   14   16 1
  32   14   17 1
  33   14   46 1
  34   15   47 1
  35   16   20 1
  36   17   18 1
  37   17   22 1
  38   17   48 1
  39   18   19 1
  40   18   26 1
  41   18   49 1
  42   19   20 1
  43   19   50 1
  44   19   51 1
  45   20   21 1
  46   20   27 1
  47   21   52 1
  48   22   23 am
  49   22   53 1
  50   23   24 1
  51   23   25 2
  52   24   54 1
  53   24   55 1
  54   24   56 1
  55   26   57 1
  56   27   28 2
  57   27   29 1
  58   29   58 1

#	End of record

