#	Name: ASD03090067
#	Creating user name:	WinNT
#	Creation time:	15. 06. 2019 20:28

#	Modifying user name:	WinNT
#	Modification time:	15. 06. 2019 20:28

#	Program:	/corina/corina34_cracker 3.40 0067  02.08.2006

@<TRIPOS>MOLECULE
ASD03090067
  48   50    0    0    0
SMALL
NO_CHARGES


@<TRIPOS>ATOM
   1 C1             0.4874     1.4392     0.7601 C.ar    
   2 C2             0.5974     0.0672     0.8870 C.ar    
   3 C3             1.8528    -0.4975     1.0513 C.ar    
   4 C4             2.9556     0.3427     1.0818 C.ar    
   5 C5             2.7679     1.7052     0.9486 C.ar    
   6 N6             1.5584     2.2077     0.7938 N.ar    
   7 C7            -1.0939     3.1078     1.6383 C.2     
   8 C8            -0.8716     2.0634     0.5748 C.3     
   9 O9            -0.2322     3.3243     2.4664 O.2     
  10 N10           -2.2402     3.7964     1.6701 N.2     
  11 C11           -2.4341     4.7077     2.5980 C.2     
  12 N12           -3.5920     5.4032     2.6302 N.pl3   
  13 C13           -3.8460     6.2922     3.6827 C.ar    
  14 C14           -2.9672     6.3681     4.7554 C.ar    
  15 C15           -3.2183     7.2445     5.7923 C.ar    
  16 C16           -4.3482     8.0490     5.7629 C.ar    
  17 C17           -5.2266     7.9736     4.6916 C.ar    
  18 C18           -4.9739     7.1019     3.6512 C.ar    
  19 O19           -4.5951     8.9114     6.7846 O.3     
  20 C20           -5.7766     9.7093     6.6889 C.3     
  21 C21           -5.8845    10.6106     7.9206 C.3     
  22 C22           -4.5376     5.2356     1.6120 C.ar    
  23 C23           -5.7720     4.6656     1.8959 C.ar    
  24 C24           -6.7033     4.5019     0.8895 C.ar    
  25 C25           -6.4077     4.9051    -0.4010 C.ar    
  26 C26           -5.1783     5.4730    -0.6867 C.ar    
  27 C27           -4.2455     5.6443     0.3171 C.ar    
  28 Cl28          -7.5807     4.6978    -1.6638 Cl      
  29 H29           -0.2835    -0.5570     0.8589 H       
  30 H30            1.9692    -1.5664     1.1533 H       
  31 H31            3.9485    -0.0627     1.2086 H       
  32 H32            3.6216     2.3663     0.9713 H       
  33 H33           -0.9264     2.5293    -0.4091 H       
  34 H34           -1.6391     1.2936     0.6556 H       
  35 H35           -1.6679     4.9002     3.3344 H       
  36 H36           -2.0878     5.7417     4.7786 H       
  37 H37           -2.5352     7.3034     6.6267 H       
  38 H38           -6.1060     8.6002     4.6694 H       
  39 H39           -5.6552     7.0468     2.8151 H       
  40 H40           -5.7273    10.3254     5.7911 H       
  41 H41           -6.6504     9.0598     6.6363 H       
  42 H42           -5.0108    11.2601     7.9732 H       
  43 H43           -6.7858    11.2192     7.8476 H       
  44 H44           -5.9339     9.9945     8.8184 H       
  45 H45           -6.0030     4.3504     2.9027 H       
  46 H46           -7.6631     4.0584     1.1096 H       
  47 H47           -4.9500     5.7865    -1.6946 H       
  48 H48           -3.2880     6.0915     0.0945 H       
@<TRIPOS>BOND
   1    1    2 ar
   2    1    6 ar
   3    1    8 1
   4    2    3 ar
   5    2   29 1
   6    3    4 ar
   7    3   30 1
   8    4    5 ar
   9    4   31 1
  10    5    6 ar
  11    5   32 1
  12    7    8 1
  13    7    9 2
  14    7   10 1
  15    8   33 1
  16    8   34 1
  17   10   11 2
  18   11   12 1
  19   11   35 1
  20   12   13 1
  21   12   22 1
  22   13   14 ar
  23   13   18 ar
  24   14   15 ar
  25   14   36 1
  26   15   16 ar
  27   15   37 1
  28   16   17 ar
  29   16   19 1
  30   17   18 ar
  31   17   38 1
  32   18   39 1
  33   19   20 1
  34   20   21 1
  35   20   40 1
  36   20   41 1
  37   21   42 1
  38   21   43 1
  39   21   44 1
  40   22   23 ar
  41   22   27 ar
  42   23   24 ar
  43   23   45 1
  44   24   25 ar
  45   24   46 1
  46   25   26 ar
  47   25   28 1
  48   26   27 ar
  49   26   47 1
  50   27   48 1

#	End of record

