#	Name: ASD01903123
#	Creating user name:	WinNT
#	Creation time:	15. 06. 2019 19:54

#	Modifying user name:	WinNT
#	Modification time:	15. 06. 2019 19:54

#	Program:	/corina/corina34_cracker 3.40 0067  02.08.2006

@<TRIPOS>MOLECULE
ASD01903123
  35   37    0    0    0
SMALL
NO_CHARGES


@<TRIPOS>ATOM
   1 N1            -0.0426     1.3989    -0.0019 N.am    
   2 C2            -0.0171    -0.0043    -0.0067 C.ar    
   3 C3            -0.2417    -0.6991    -1.1887 C.ar    
   4 C4            -0.2166    -2.0804    -1.1931 C.ar    
   5 C5             0.0331    -2.7737    -0.0160 C.ar    
   6 C6             0.2576    -2.0781     1.1655 C.ar    
   7 C7             0.2380    -0.6979     1.1685 C.ar    
   8 C8             1.0478     2.1440    -0.2213 C.2     
   9 C9             0.6735     3.6082    -0.1463 C.3     
  10 C10           -0.8382     3.5798     0.1577 C.3     
  11 C11           -1.1603     2.1025     0.2169 C.2     
  12 O12            2.1591     1.7138    -0.4442 O.2     
  13 O13           -2.2556     1.6308     0.4351 O.2     
  14 Cl14          -0.5544     0.1683    -2.6596 Cl      
  15 N15            0.0582    -4.1727    -0.0198 N.am    
  16 C16            0.5500    -4.8350    -1.0857 C.2     
  17 O17            0.8931    -4.2213    -2.0770 O.2     
  18 C18            0.6723    -6.3107    -1.0488 C.ar    
  19 N19            0.2959    -6.9754     0.0366 N.ar    
  20 C20            0.3881    -8.2854     0.1101 C.ar    
  21 C21            0.8852    -9.0245    -0.9512 C.ar    
  22 C22            1.2900    -8.3702    -2.1045 C.ar    
  23 C23            1.1762    -6.9900    -2.1561 C.ar    
  24 H24           -0.3915    -2.6208    -2.1116 H       
  25 H25            0.4517    -2.6173     2.0808 H       
  26 H26            0.4129    -0.1576     2.0871 H       
  27 H27            1.2175     4.1025     0.6587 H       
  28 H28            0.8640     4.1021    -1.0991 H       
  29 H29           -1.0464     4.0599     1.1138 H       
  30 H30           -1.3998     4.0595    -0.6439 H       
  31 H31           -0.2784    -4.6660     0.7446 H       
  32 H32            0.0722    -8.7919     1.0101 H       
  33 H33            0.9571   -10.0997    -0.8806 H       
  34 H34            1.6812    -8.9239    -2.9452 H       
  35 H35            1.4816    -6.4479    -3.0388 H       
@<TRIPOS>BOND
   1    1    2 1
   2    1    8 am
   3    1   11 am
   4    2    3 ar
   5    2    7 ar
   6    3    4 ar
   7    3   14 1
   8    4    5 ar
   9    4   24 1
  10    5    6 ar
  11    5   15 1
  12    6    7 ar
  13    6   25 1
  14    7   26 1
  15    8    9 1
  16    8   12 2
  17    9   10 1
  18    9   27 1
  19    9   28 1
  20   10   11 1
  21   10   29 1
  22   10   30 1
  23   11   13 2
  24   15   16 am
  25   15   31 1
  26   16   17 2
  27   16   18 1
  28   18   19 ar
  29   18   23 ar
  30   19   20 ar
  31   20   21 ar
  32   20   32 1
  33   21   22 ar
  34   21   33 1
  35   22   23 ar
  36   22   34 1
  37   23   35 1

#	End of record

