#	Name: ASD02408426
#	Creating user name:	WinNT
#	Creation time:	15. 06. 2019 20:21

#	Modifying user name:	WinNT
#	Modification time:	15. 06. 2019 20:21

#	Program:	/corina/corina34_cracker 3.40 0067  02.08.2006

@<TRIPOS>MOLECULE
ASD02408426
  49   52    0    0    0
SMALL
NO_CHARGES


@<TRIPOS>ATOM
   1 N1             0.1367     0.5438    -0.1081 N.am    
   2 C2             0.3403    -0.7975    -0.1388 C.2     
   3 N3             1.5207    -1.3336    -0.2477 N.2     
   4 C4             2.6321    -0.5874    -0.3386 C.2     
   5 C5             2.5212     0.8120    -0.3159 C.2     
   6 C6             1.1855     1.3954    -0.1925 C.2     
   7 N7             3.9583    -0.8696    -0.4579 N.pl3   
   8 N8             4.6618     0.3404    -0.5086 N.2     
   9 C9             3.8228     1.3364    -0.4256 C.2     
  10 C10           -0.8564    -1.7083    -0.0420 C.3     
  11 C11           -0.4092    -3.1595    -0.2289 C.3     
  12 C12            4.5226    -2.1501    -0.5190 C.ar    
  13 C13            4.2938    -3.0607     0.5039 C.ar    
  14 C14            4.8517    -4.3228     0.4408 C.ar    
  15 C15            5.6374    -4.6796    -0.6396 C.ar    
  16 C16            5.8676    -3.7747    -1.6598 C.ar    
  17 C17            5.3076    -2.5136    -1.6056 C.ar    
  18 O18            1.0230     2.6026    -0.1674 O.2     
  19 C19           -1.5947    -4.1112     0.0090 C.3     
  20 C20           -1.8111    -4.8835    -1.3088 C.3     
  21 C21           -0.4357    -4.8177    -2.0179 C.3     
  22 C22            0.0535    -3.3868    -1.6829 C.3     
  23 C23            5.5585    -1.5284    -2.7180 C.3     
  24 C24            6.7749    -0.6673    -2.3719 C.3     
  25 C25            3.4380    -2.6725     1.6820 C.3     
  26 H26           -0.7645     0.8938    -0.0293 H       
  27 H27            4.0829     2.3845    -0.4387 H       
  28 H28           -1.3211    -1.5947     0.9374 H       
  29 H29           -1.5757    -1.4469    -0.8180 H       
  30 H30            0.4010    -3.3923     0.4622 H       
  31 H31            4.6744    -5.0314     1.2363 H       
  32 H32            6.0725    -5.6670    -0.6866 H       
  33 H33            6.4823    -4.0562    -2.5020 H       
  34 H34           -1.3596    -4.8064     0.8149 H       
  35 H35           -2.4886    -3.5392     0.2576 H       
  36 H36           -2.0855    -5.9183    -1.1038 H       
  37 H37           -2.5762    -4.3978    -1.9144 H       
  38 H38            0.2456    -5.5643    -1.6097 H       
  39 H39           -0.5496    -4.9448    -3.0945 H       
  40 H40           -0.4105    -2.6593    -2.3490 H       
  41 H41            1.1398    -3.3292    -1.7510 H       
  42 H42            5.7477    -2.0683    -3.6457 H       
  43 H43            4.6842    -0.8893    -2.8414 H       
  44 H44            6.9564     0.0453    -3.1765 H       
  45 H45            6.5857    -0.1273    -1.4441 H       
  46 H46            7.6492    -1.3064    -2.2485 H       
  47 H47            2.4086    -2.9818     1.5010 H       
  48 H48            3.8123    -3.1633     2.5804 H       
  49 H49            3.4742    -1.5914     1.8168 H       
@<TRIPOS>BOND
   1    1    2 1
   2    1    6 am
   3    1   26 1
   4    2    3 2
   5    2   10 1
   6    3    4 1
   7    4    5 2
   8    4    7 1
   9    5    6 1
  10    5    9 1
  11    6   18 2
  12    7    8 1
  13    7   12 1
  14    8    9 2
  15    9   27 1
  16   10   11 1
  17   10   28 1
  18   10   29 1
  19   11   19 1
  20   11   22 1
  21   11   30 1
  22   12   13 ar
  23   12   17 ar
  24   13   14 ar
  25   13   25 1
  26   14   15 ar
  27   14   31 1
  28   15   16 ar
  29   15   32 1
  30   16   17 ar
  31   16   33 1
  32   17   23 1
  33   19   20 1
  34   19   34 1
  35   19   35 1
  36   20   21 1
  37   20   36 1
  38   20   37 1
  39   21   22 1
  40   21   38 1
  41   21   39 1
  42   22   40 1
  43   22   41 1
  44   23   24 1
  45   23   42 1
  46   23   43 1
  47   24   44 1
  48   24   45 1
  49   24   46 1
  50   25   47 1
  51   25   48 1
  52   25   49 1

#	End of record

