#	Name: ASD01140237
#	Creating user name:	WinNT
#	Creation time:	15. 06. 2019 19:00

#	Modifying user name:	WinNT
#	Modification time:	15. 06. 2019 19:00

#	Program:	/corina/corina34_cracker 3.40 0067  02.08.2006

@<TRIPOS>MOLECULE
ASD01140237
  77   82    0    0    0
SMALL
NO_CHARGES


@<TRIPOS>ATOM
   1 C1            -1.5900     1.6114    -0.5165 C.2     
   2 C2            -1.8565     0.2848    -0.6278 C.2     
   3 S3            -0.3675    -0.5998    -0.9119 S.3     
   4 C4             0.5779     0.8875    -0.8671 C.2     
   5 C5            -0.2546     1.9642    -0.6463 C.2     
   6 C6             2.0352     0.9372    -1.0404 C.2     
   7 N7             2.7954     1.7490    -0.3722 N.2     
   8 C8             2.2535     2.6527     0.6384 C.3     
   9 C9             1.3313     3.6509     0.0029 C.2     
  10 N10            0.1742     3.3036    -0.5586 N.am    
  11 C11           -3.1577    -0.3045    -0.5275 C.1     
  12 C12           -0.6857     4.3553    -1.1068 C.3     
  13 O13            1.6520     4.8207     0.0005 O.2     
  14 O14           -2.4700     4.3330     9.8797 O.2     
  15 C15           -2.6427     3.1759     9.5597 C.2     
  16 N16           -3.8423     2.8082     9.1132 N.am    
  17 C17           -4.8852     3.8279     8.9767 C.3     
  18 C18           -1.4946     2.2173     9.6767 C.3     
  19 N19           -1.7746     1.2143    10.6999 N.2     
  20 C20           -2.7463     0.3637    10.5744 C.2     
  21 C21           -3.6608     0.3642     9.4256 C.2     
  22 C22           -4.1480     1.4770     8.7665 C.2     
  23 S23           -4.2985    -1.0984     8.6759 S.3     
  24 C24           -5.2007    -0.1570     7.5010 C.2     
  25 C25           -4.9928     1.1670     7.7107 C.2     
  26 C26           -6.0311    -0.7041     6.4707 C.1     
  27 C27           -4.2245    -0.7877    -0.4453 C.1     
  28 C28           -6.7120    -1.1527     5.6260 C.1     
  29 C29           -2.9413    -0.6525    11.6362 C.ar    
  30 C30           -4.1780    -1.2783    11.7872 C.ar    
  31 C31           -4.3535    -2.2238    12.7769 C.ar    
  32 C32           -3.3053    -2.5510    13.6183 C.ar    
  33 C33           -2.0761    -1.9330    13.4736 C.ar    
  34 C34           -1.8872    -0.9902    12.4837 C.ar    
  35 C35            2.6649     0.0203    -2.0206 C.ar    
  36 C36            4.0195    -0.2925    -1.9162 C.ar    
  37 C37            4.6000    -1.1469    -2.8312 C.ar    
  38 C38            3.8406    -1.6928    -3.8505 C.ar    
  39 C39            2.4961    -1.3857    -3.9594 C.ar    
  40 C40            1.9034    -0.5370    -3.0469 C.ar    
  41 C41            0.5121     1.5515     3.8162 C.3     
  42 C42            0.3337     2.3107     5.1326 C.3     
  43 C43           -0.4440     1.4404     6.1219 C.3     
  44 C44            1.4929     1.8540     1.6654 C.2     
  45 O45            1.2502     2.3774     2.8774 O.3     
  46 O46            1.1016     0.7427     1.3979 O.2     
  47 C47           -1.2799     1.5320     8.3518 C.2     
  48 O48           -0.6133     2.1609     7.3711 O.3     
  49 O49           -1.7077     0.4163     8.1724 O.2     
  50 H50           -2.3655     2.3428    -0.3433 H       
  51 H51            3.0726     3.1790     1.1284 H       
  52 H52           -0.2117     5.3257    -0.9595 H       
  53 H53           -0.8366     4.1826    -2.1724 H       
  54 H54           -1.6487     4.3401    -0.5963 H       
  55 H55           -4.4891     4.7960     9.2832 H       
  56 H56           -5.2084     3.8802     7.9371 H       
  57 H57           -5.7342     3.5662     9.6084 H       
  58 H58           -0.5924     2.7661     9.9467 H       
  59 H59           -5.4523     1.9278     7.0973 H       
  60 H60           -5.1786    -1.2199    -0.3718 H       
  61 H61           -7.3210    -1.5539     4.8705 H       
  62 H62           -4.9971    -1.0234    11.1311 H       
  63 H63           -5.3111    -2.7090    12.8951 H       
  64 H64           -3.4473    -3.2915    14.3915 H       
  65 H65           -1.2616    -2.1919    14.1338 H       
  66 H66           -0.9270    -0.5086    12.3714 H       
  67 H67            4.6134     0.1334    -1.1211 H       
  68 H68            5.6494    -1.3897    -2.7516 H       
  69 H69            4.2992    -2.3611    -4.5643 H       
  70 H70            1.9083    -1.8143    -4.7577 H       
  71 H71            0.8536    -0.2983    -3.1326 H       
  72 H72            1.0634     0.6294     4.0005 H       
  73 H73           -0.4662     1.3127     3.3991 H       
  74 H74            1.3120     2.5495     5.5498 H       
  75 H75           -0.2176     3.2328     4.9484 H       
  76 H76           -1.4223     1.2017     5.7047 H       
  77 H77            0.1073     0.5184     6.3061 H       
@<TRIPOS>BOND
   1    1    2 2
   2    1    5 1
   3    1   50 1
   4    2    3 1
   5    2   11 1
   6    3    4 1
   7    4    5 2
   8    4    6 1
   9    5   10 1
  10    6    7 2
  11    6   35 1
  12    7    8 1
  13    8    9 1
  14    8   44 1
  15    8   51 1
  16    9   10 am
  17    9   13 2
  18   10   12 1
  19   11   27 3
  20   12   52 1
  21   12   53 1
  22   12   54 1
  23   14   15 2
  24   15   16 am
  25   15   18 1
  26   16   17 1
  27   16   22 1
  28   17   55 1
  29   17   56 1
  30   17   57 1
  31   18   19 1
  32   18   47 1
  33   18   58 1
  34   19   20 2
  35   20   21 1
  36   20   29 1
  37   21   22 2
  38   21   23 1
  39   22   25 1
  40   23   24 1
  41   24   25 2
  42   24   26 1
  43   25   59 1
  44   26   28 3
  45   27   60 1
  46   28   61 1
  47   29   30 ar
  48   29   34 ar
  49   30   31 ar
  50   30   62 1
  51   31   32 ar
  52   31   63 1
  53   32   33 ar
  54   32   64 1
  55   33   34 ar
  56   33   65 1
  57   34   66 1
  58   35   36 ar
  59   35   40 ar
  60   36   37 ar
  61   36   67 1
  62   37   38 ar
  63   37   68 1
  64   38   39 ar
  65   38   69 1
  66   39   40 ar
  67   39   70 1
  68   40   71 1
  69   41   42 1
  70   41   45 1
  71   41   72 1
  72   41   73 1
  73   42   43 1
  74   42   74 1
  75   42   75 1
  76   43   48 1
  77   43   76 1
  78   43   77 1
  79   44   45 1
  80   44   46 2
  81   47   48 1
  82   47   49 2

#	End of record

