#	Name: ASD08151096
#	Creating user name:	WinNT
#	Creation time:	15. 06. 2019 21:17

#	Modifying user name:	WinNT
#	Modification time:	15. 06. 2019 21:17

#	Program:	/corina/corina34_cracker 3.40 0067  02.08.2006

@<TRIPOS>MOLECULE
ASD08151096
  32   32    0    0    0
SMALL
NO_CHARGES


@<TRIPOS>ATOM
   1 C1            -0.0184     1.5028     0.0103 C.2     
   2 C2             0.1329     0.0036    -0.0147 C.3     
   3 C3             1.1711     2.3596     0.0091 C.ar    
   4 C4             1.0335     3.7558    -0.0845 C.ar    
   5 C5             2.1582     4.5597    -0.0853 C.ar    
   6 C6             3.4262     3.9853     0.0066 C.ar    
   7 C7             3.5631     2.5941     0.0993 C.ar    
   8 C8             2.4476     1.7891     0.1069 C.ar    
   9 C9             4.5902     4.8193     0.0056 C.1     
  10 C10            5.5445     5.5031     0.0048 C.1     
  11 Si11           7.0890     6.6098     0.0035 Si      
  12 C12            8.6139     5.5479     0.1373 C.3     
  13 C13            7.1505     7.5882    -1.5807 C.3     
  14 C14            7.0169     7.7783     1.4527 C.3     
  15 O15           -0.2002     4.3128    -0.1742 O.3     
  16 F16            4.7932     2.0423     0.1872 F       
  17 O17           -1.1246     2.0007     0.0264 O.2     
  18 H18            1.1863    -0.2535    -0.1259 H       
  19 H19           -0.2470    -0.4155     0.9170 H       
  20 H20           -0.4312    -0.4046    -0.8534 H       
  21 H21            2.0553     5.6323    -0.1574 H       
  22 H22            2.5557     0.7173     0.1834 H       
  23 H23            8.6561     4.8643    -0.7106 H       
  24 H24            9.4999     6.1828     0.1365 H       
  25 H25            8.5779     4.9755     1.0641 H       
  26 H26            6.2583     8.2095    -1.6589 H       
  27 H27            8.0365     8.2231    -1.5814 H       
  28 H28            7.1927     6.9046    -2.4286 H       
  29 H29            6.9808     7.2058     2.3796 H       
  30 H30            7.9029     8.4132     1.4520 H       
  31 H31            6.1247     8.3996     1.3745 H       
  32 H32           -0.5970     4.5294     0.6806 H       
@<TRIPOS>BOND
   1    1    2 1
   2    1    3 1
   3    1   17 2
   4    2   18 1
   5    2   19 1
   6    2   20 1
   7    3    4 ar
   8    3    8 ar
   9    4    5 ar
  10    4   15 1
  11    5    6 ar
  12    5   21 1
  13    6    7 ar
  14    6    9 1
  15    7    8 ar
  16    7   16 1
  17    8   22 1
  18    9   10 3
  19   10   11 1
  20   11   12 1
  21   11   13 1
  22   11   14 1
  23   12   23 1
  24   12   24 1
  25   12   25 1
  26   13   26 1
  27   13   27 1
  28   13   28 1
  29   14   29 1
  30   14   30 1
  31   14   31 1
  32   15   32 1

#	End of record

