#	Name: ASD07930389
#	Creating user name:	WinNT
#	Creation time:	15. 06. 2019 21:12

#	Modifying user name:	WinNT
#	Modification time:	15. 06. 2019 21:12

#	Program:	/corina/corina34_cracker 3.40 0067  02.08.2006

@<TRIPOS>MOLECULE
ASD07930389
  45   47    0    0    0
SMALL
NO_CHARGES


@<TRIPOS>ATOM
   1 N1            -0.0045     1.2783     0.0189 N.2     
   2 N2            -1.1649    -0.7501     0.0207 N.pl3   
   3 C3            -1.3888    -1.7859    -0.9933 C.3     
   4 C4            -0.2707    -2.8336    -0.9019 C.3     
   5 S5             1.3272    -1.9812    -1.0875 S.o2    
   6 N6             1.2045    -0.7295     0.0056 N.am    
   7 C7             0.0091    -0.0250     0.0153 C.2     
   8 C8             2.3043    -0.3899     0.9119 C.3     
   9 C9            -1.3801    -1.1493    -2.3845 C.3     
  10 C10           -2.7204    -2.4485    -0.7504 C.ar    
  11 C11           -3.7514    -1.7336    -0.1735 C.ar    
  12 C12           -4.9786    -2.3450     0.0496 C.ar    
  13 C13           -5.1643    -3.6738    -0.3085 C.ar    
  14 C14           -4.1288    -4.3833    -0.8851 C.ar    
  15 C15           -2.9102    -3.7702    -1.1106 C.ar    
  16 N16           -6.0248    -1.6239     0.6340 N.am    
  17 C17           -7.2975    -1.8586     0.2578 C.2     
  18 O18           -7.5297    -2.6260    -0.6567 O.2     
  19 C19           -8.4081    -1.1852     0.9548 C.2     
  20 C20           -9.7352    -1.3288     0.6889 C.2     
  21 O21            2.3885    -2.7858    -0.5921 O.2     
  22 O22            1.4140    -1.3426    -2.3540 O.2     
  23 N23           -8.2999    -0.3075     1.9889 N.2     
  24 C24           -9.4939     0.0709     2.3345 C.2     
  25 O25          -10.3949    -0.5405     1.5527 O.3     
  26 C26           -9.8152     1.0408     3.4423 C.3     
  27 H27            0.8305     1.7720     0.0147 H       
  28 H28           -1.8427    -0.5724     0.6915 H       
  29 H29           -0.3115    -3.3310     0.0671 H       
  30 H30           -0.3898    -3.5685    -1.6981 H       
  31 H31            2.9545     0.3438     0.4353 H       
  32 H32            1.8996     0.0277     1.8338 H       
  33 H33            2.8771    -1.2886     1.1408 H       
  34 H34           -0.4158    -0.6722    -2.5597 H       
  35 H35           -1.5465    -1.9196    -3.1376 H       
  36 H36           -2.1717    -0.4027    -2.4474 H       
  37 H37           -3.6037    -0.7004     0.1041 H       
  38 H38           -6.1171    -4.1521    -0.1360 H       
  39 H39           -4.2725    -5.4167    -1.1638 H       
  40 H40           -2.1023    -4.3270    -1.5620 H       
  41 H41           -5.8344    -0.9550     1.3102 H       
  42 H42          -10.1741    -1.9567    -0.0723 H       
  43 H43           -9.8387     2.0545     3.0423 H       
  44 H44          -10.7880     0.7960     3.8687 H       
  45 H45           -9.0515     0.9735     4.2171 H       
@<TRIPOS>BOND
   1    1    7 2
   2    1   27 1
   3    2    3 1
   4    2    7 1
   5    2   28 1
   6    3    4 1
   7    3    9 1
   8    3   10 1
   9    4    5 1
  10    4   29 1
  11    4   30 1
  12    5    6 am
  13    5   21 2
  14    5   22 2
  15    6    7 1
  16    6    8 1
  17    8   31 1
  18    8   32 1
  19    8   33 1
  20    9   34 1
  21    9   35 1
  22    9   36 1
  23   10   11 ar
  24   10   15 ar
  25   11   12 ar
  26   11   37 1
  27   12   13 ar
  28   12   16 1
  29   13   14 ar
  30   13   38 1
  31   14   15 ar
  32   14   39 1
  33   15   40 1
  34   16   17 am
  35   16   41 1
  36   17   18 2
  37   17   19 1
  38   19   23 1
  39   19   20 2
  40   20   25 1
  41   20   42 1
  42   23   24 2
  43   24   25 1
  44   24   26 1
  45   26   43 1
  46   26   44 1
  47   26   45 1

#	End of record

