#	Name: ASD03540084
#	Creating user name:	WinNT
#	Creation time:	15. 06. 2019 20:42

#	Modifying user name:	WinNT
#	Modification time:	15. 06. 2019 20:42

#	Program:	/corina/corina34_cracker 3.40 0067  02.08.2006

@<TRIPOS>MOLECULE
ASD03540084
  50   52    0    0    0
SMALL
NO_CHARGES


@<TRIPOS>ATOM
   1 C1            -0.0179     1.4722     0.0101 C.2     
   2 C2             0.0021    -0.0041     0.0020 C.ar    
   3 C3             1.2180    -0.6841    -0.0132 C.ar    
   4 C4             1.2312    -2.0766    -0.0204 C.ar    
   5 C5             2.5146    -2.8050    -0.0361 C.2     
   6 C6             0.0191    -2.7850    -0.0122 C.ar    
   7 C7            -1.1873    -2.0967     0.0031 C.ar    
   8 C8            -1.2000    -0.7201     0.0155 C.ar    
   9 O9             1.0266     2.0944     0.0035 O.2     
  10 N10           -1.1942     2.1301     0.0193 N.am    
  11 O11            2.5235    -4.0208    -0.0423 O.2     
  12 N12            3.6767    -2.1225    -0.0435 N.am    
  13 O13            0.0261    -4.1398    -0.0195 O.3     
  14 C14           -1.2437    -4.7952    -0.0104 C.3     
  15 C15            4.9508    -2.8455    -0.0590 C.3     
  16 C16            6.0889    -1.8578    -0.0647 C.ar    
  17 C17            6.6221    -1.4108     1.1298 C.ar    
  18 C18            7.6661    -0.5047     1.1246 C.ar    
  19 C19            8.1771    -0.0460    -0.0751 C.ar    
  20 C20            7.6445    -0.4936    -1.2696 C.ar    
  21 C21            6.6034    -1.4030    -1.2644 C.ar    
  22 C22           -1.2140     3.5950     0.0273 C.3     
  23 C23           -2.6415     4.0779     0.0367 C.ar    
  24 C24           -3.2905     4.2930     1.2382 C.ar    
  25 C25           -4.6000     4.7359     1.2468 C.ar    
  26 C26           -5.2602     4.9643     0.0540 C.ar    
  27 C27           -4.6109     4.7502    -1.1474 C.ar    
  28 C28           -3.3001     4.3114    -1.1560 C.ar    
  29 H29            2.1469    -0.1333    -0.0199 H       
  30 H30           -2.1187    -2.6434     0.0090 H       
  31 H31           -2.1413    -0.1909     0.0315 H       
  32 H32           -2.0275     1.6338     0.0205 H       
  33 H33            3.6696    -1.1525    -0.0385 H       
  34 H34           -1.0953    -5.8750    -0.0177 H       
  35 H35           -1.7933    -4.5100     0.8866 H       
  36 H36           -1.8110    -4.5004    -0.8932 H       
  37 H37            5.0214    -3.4762     0.8271 H       
  38 H38            5.0048    -3.4672    -0.9527 H       
  39 H39            6.2228    -1.7692     2.0671 H       
  40 H40            8.0822    -0.1549     2.0578 H       
  41 H41            8.9923     0.6625    -0.0792 H       
  42 H42            8.0436    -0.1350    -2.2069 H       
  43 H43            6.1898    -1.7556    -2.1977 H       
  44 H44           -0.7010     3.9604     0.9169 H       
  45 H45           -0.7094     3.9701    -0.8630 H       
  46 H46           -2.7747     4.1145     2.1701 H       
  47 H47           -5.1073     4.9032     2.1854 H       
  48 H48           -6.2835     5.3097     0.0607 H       
  49 H49           -5.1268     4.9283    -2.0794 H       
  50 H50           -2.7916     4.1476    -2.0947 H       
@<TRIPOS>BOND
   1    1    2 1
   2    1    9 2
   3    1   10 am
   4    2    3 ar
   5    2    8 ar
   6    3    4 ar
   7    3   29 1
   8    4    5 1
   9    4    6 ar
  10    5   11 2
  11    5   12 am
  12    6    7 ar
  13    6   13 1
  14    7    8 ar
  15    7   30 1
  16    8   31 1
  17   10   22 1
  18   10   32 1
  19   12   15 1
  20   12   33 1
  21   13   14 1
  22   14   34 1
  23   14   35 1
  24   14   36 1
  25   15   16 1
  26   15   37 1
  27   15   38 1
  28   16   17 ar
  29   16   21 ar
  30   17   18 ar
  31   17   39 1
  32   18   19 ar
  33   18   40 1
  34   19   20 ar
  35   19   41 1
  36   20   21 ar
  37   20   42 1
  38   21   43 1
  39   22   23 1
  40   22   44 1
  41   22   45 1
  42   23   24 ar
  43   23   28 ar
  44   24   25 ar
  45   24   46 1
  46   25   26 ar
  47   25   47 1
  48   26   27 ar
  49   26   48 1
  50   27   28 ar
  51   27   49 1
  52   28   50 1

#	End of record

