#	Name: ASD04910162
#	Creating user name:	WinNT
#	Creation time:	15. 06. 2019 20:55

#	Modifying user name:	WinNT
#	Modification time:	15. 06. 2019 20:55

#	Program:	/corina/corina34_cracker 3.40 0067  02.08.2006

@<TRIPOS>MOLECULE
ASD04910162
  19   20    0    0    0
SMALL
NO_CHARGES


@<TRIPOS>ATOM
   1 C1            -0.0156     1.2993     0.0092 C.2     
   2 N2             0.0021    -0.0041     0.0020 N.2     
   3 C3             1.2816    -0.4299    -0.0125 C.2     
   4 C4             2.0822     0.6679    -0.0142 C.2     
   5 N5             1.2558     1.7565    -0.0005 N.pl3   
   6 C6             1.7338    -1.8429    -0.0240 C.ar    
   7 C7             0.7989    -2.8764    -0.0206 C.ar    
   8 C8             1.2251    -4.1890    -0.0313 C.ar    
   9 C9             2.5774    -4.4797    -0.0448 C.ar    
  10 C10            3.5098    -3.4578    -0.0477 C.ar    
  11 C11            3.0948    -2.1416    -0.0438 C.ar    
  12 H12           -0.9032     1.9145     0.0169 H       
  13 H13            3.1621     0.6782    -0.0240 H       
  14 H14            1.5315     2.6865     0.0019 H       
  15 H15           -0.2572    -2.6505    -0.0094 H       
  16 H16            0.5015    -4.9907    -0.0287 H       
  17 H17            2.9065    -5.5083    -0.0528 H       
  18 H18            4.5644    -3.6905    -0.0575 H       
  19 H19            3.8235    -1.3445    -0.0510 H       
@<TRIPOS>BOND
   1    1    2 2
   2    1    5 1
   3    1   12 1
   4    2    3 1
   5    3    4 2
   6    3    6 1
   7    4    5 1
   8    4   13 1
   9    5   14 1
  10    6    7 ar
  11    6   11 ar
  12    7    8 ar
  13    7   15 1
  14    8    9 ar
  15    8   16 1
  16    9   10 ar
  17    9   17 1
  18   10   11 ar
  19   10   18 1
  20   11   19 1

#	End of record

