#	Name: ASD06660045
#	Creating user name:	WinNT
#	Creation time:	15. 06. 2019 21:07

#	Modifying user name:	WinNT
#	Modification time:	15. 06. 2019 21:07

#	Program:	/corina/corina34_cracker 3.40 0067  02.08.2006

@<TRIPOS>MOLECULE
ASD06660045
  69   72    0    0    0
SMALL
NO_CHARGES


@<TRIPOS>ATOM
   1 C1            -0.4255     1.5256     1.0358 C.2     
   2 C2            -0.2850     0.0800     0.6339 C.3     
   3 C3            -1.3041    -0.2467    -0.4596 C.3     
   4 O4             0.5093     2.2809     0.9108 O.2     
   5 O5            -1.5907     1.9754     1.5273 O.3     
   6 C6            -1.2631    -1.7230    -0.7597 C.ar    
   7 C7            -2.0503    -2.5962    -0.0305 C.ar    
   8 C8            -2.0168    -3.9490    -0.3001 C.ar    
   9 C9            -1.1874    -4.4355    -1.3107 C.ar    
  10 C10           -0.3964    -3.5498    -2.0427 C.ar    
  11 C11           -0.4426    -2.1986    -1.7669 C.ar    
  12 O12           -0.3310    -6.3107    -2.5891 O.3     
  13 C13           -1.1463    -5.8853    -1.6048 C.2     
  14 N14           -1.8917    -6.6678    -0.9048 N.2     
  15 C15           -1.9319    -8.1162    -1.0897 C.3     
  16 C16           -1.3509    -8.4799    -2.4599 C.3     
  17 C17           -0.0345    -7.7101    -2.6398 C.3     
  18 C18           -1.0823    -9.9848    -2.5242 C.3     
  19 N19           -0.6401   -10.3446    -3.8737 N.pl3   
  20 C20           -0.3346   -11.6666    -4.1756 C.ar    
  21 C21           -0.4510   -12.6432    -3.1914 C.ar    
  22 C22           -0.1438   -13.9545    -3.5055 C.ar    
  23 C23            0.2711   -14.2467    -4.7983 C.ar    
  24 C24            0.3642   -13.2280    -5.7249 C.ar    
  25 N25            0.0594   -11.9862    -5.3985 N.ar    
  26 C26            2.0967    -0.2941     0.9867 C.2     
  27 C27            3.4750    -0.4407     0.4740 C.ar    
  28 C28            4.0418    -1.7098     0.3401 C.ar    
  29 C29            5.3280    -1.8402    -0.1392 C.ar    
  30 C30            6.0578    -0.7154    -0.4873 C.ar    
  31 C31            5.5010     0.5459    -0.3568 C.ar    
  32 C32            4.2134     0.6887     0.1161 C.ar    
  33 O33            1.8903    -0.2977     2.1846 O.2     
  34 N34            1.0687    -0.1564     0.1261 N.am    
  35 C35            3.6067     2.0615     0.2517 C.3     
  36 C36            3.2496    -2.9343     0.7194 C.3     
  37 C37            2.4075    -3.3870    -0.4751 C.3     
  38 Cl38           7.6771    -0.8875    -1.0891 Cl      
  39 H39           -0.4646    -0.5570     1.4999 H       
  40 H40           -2.3027     0.0272    -0.1191 H       
  41 H41           -1.0613     0.3144    -1.3620 H       
  42 H42           -1.6327     2.9101     1.7712 H       
  43 H43           -2.6920    -2.2184     0.7516 H       
  44 H44           -2.6313    -4.6298     0.2702 H       
  45 H45            0.2481    -3.9204    -2.8261 H       
  46 H46            0.1662    -1.5114    -2.3356 H       
  47 H47           -1.3450    -8.5979    -0.3076 H       
  48 H48           -2.9644    -8.4606    -1.0308 H       
  49 H49           -2.0529    -8.1969    -3.2442 H       
  50 H50            0.4093    -7.9582    -3.6040 H       
  51 H51            0.6563    -7.9698    -1.8376 H       
  52 H52           -0.3056   -10.2463    -1.8055 H       
  53 H53           -1.9966   -10.5276    -2.2847 H       
  54 H54           -0.5604    -9.6603    -4.5566 H       
  55 H55           -0.7764   -12.3807    -2.1956 H       
  56 H56           -0.2244   -14.7338    -2.7621 H       
  57 H57            0.5188   -15.2607    -5.0756 H       
  58 H58            0.6864   -13.4508    -6.7313 H       
  59 H59            5.7674    -2.8213    -0.2431 H       
  60 H60            6.0750     1.4192    -0.6295 H       
  61 H61            1.2251    -0.2138    -0.8295 H       
  62 H62            3.8242     2.4586     1.2432 H       
  63 H63            4.0299     2.7221    -0.5051 H       
  64 H64            2.5272     1.9968     0.1149 H       
  65 H65            3.9321    -3.7341     1.0067 H       
  66 H66            2.5939    -2.6977     1.5573 H       
  67 H67            3.0653    -3.7189    -1.2785 H       
  68 H68            1.7602    -4.2100    -0.1723 H       
  69 H69            1.7972    -2.5548    -0.8257 H       
@<TRIPOS>BOND
   1    1    2 1
   2    1    4 2
   3    1    5 1
   4    2    3 1
   5    2   34 1
   6    2   39 1
   7    3    6 1
   8    3   40 1
   9    3   41 1
  10    5   42 1
  11    6    7 ar
  12    6   11 ar
  13    7    8 ar
  14    7   43 1
  15    8    9 ar
  16    8   44 1
  17    9   10 ar
  18    9   13 1
  19   10   11 ar
  20   10   45 1
  21   11   46 1
  22   12   13 1
  23   12   17 1
  24   13   14 2
  25   14   15 1
  26   15   16 1
  27   15   47 1
  28   15   48 1
  29   16   17 1
  30   16   18 1
  31   16   49 1
  32   17   50 1
  33   17   51 1
  34   18   19 1
  35   18   52 1
  36   18   53 1
  37   19   20 1
  38   19   54 1
  39   20   21 ar
  40   20   25 ar
  41   21   22 ar
  42   21   55 1
  43   22   23 ar
  44   22   56 1
  45   23   24 ar
  46   23   57 1
  47   24   25 ar
  48   24   58 1
  49   26   27 1
  50   26   33 2
  51   26   34 am
  52   27   28 ar
  53   27   32 ar
  54   28   29 ar
  55   28   36 1
  56   29   30 ar
  57   29   59 1
  58   30   31 ar
  59   30   38 1
  60   31   32 ar
  61   31   60 1
  62   32   35 1
  63   34   61 1
  64   35   62 1
  65   35   63 1
  66   35   64 1
  67   36   37 1
  68   36   65 1
  69   36   66 1
  70   37   67 1
  71   37   68 1
  72   37   69 1

#	End of record

