#	Name: ASD02039453
#	Creating user name:	WinNT
#	Creation time:	15. 06. 2019 20:18

#	Modifying user name:	WinNT
#	Modification time:	15. 06. 2019 20:18

#	Program:	/corina/corina34_cracker 3.40 0067  02.08.2006

@<TRIPOS>MOLECULE
ASD02039453
  48   51    0    0    0
SMALL
NO_CHARGES


@<TRIPOS>ATOM
   1 C1             0.1499     1.1863     0.0761 C.ar    
   2 C2             0.4317    -0.1672     0.1947 C.ar    
   3 C3             1.2615     2.2020     0.0150 C.3     
   4 N4             1.7337     2.3266    -1.3662 N.am    
   5 C5             1.2464     3.3009    -2.1597 C.2     
   6 C6             0.1674     4.1774    -1.6720 C.2     
   7 C7            -0.4871     5.1302    -2.3965 C.2     
   8 N8            -0.3609     4.1800    -0.4214 N.2     
   9 C9            -1.2923     5.0873    -0.3598 C.2     
  10 N10           -1.3969     5.6968    -1.5694 N.pl3   
  11 O11            1.6974     3.4565    -3.2785 O.2     
  12 C12           -2.3267     6.7744    -1.9162 C.3     
  13 C13            2.7358     1.3921    -1.8848 C.3     
  14 C14           -0.6103    -1.0747     0.2478 C.ar    
  15 C15           -2.1744     0.6131     0.0633 C.ar    
  16 C16           -1.1748     1.5821     0.0094 C.ar    
  17 C17           -3.5985     1.0208    -0.0075 C.ar    
  18 C18           -4.6064     0.0570     0.0458 C.ar    
  19 C19           -5.9326     0.4431    -0.0207 C.ar    
  20 C20           -6.2607     1.7806    -0.1397 C.ar    
  21 C21           -5.2639     2.7418    -0.1935 C.ar    
  22 C22           -3.9354     2.3682    -0.1217 C.ar    
  23 N23           -1.8628    -0.6709     0.1869 N.ar    
  24 C24            2.3152     0.7014    -3.1928 C.3     
  25 C25            3.7687     0.8801    -3.6624 C.3     
  26 C26            3.8517     2.0727    -2.6950 C.3     
  27 F27           -4.2871    -1.2506     0.1617 F       
  28 F28           -5.5918     4.0472    -0.3103 F       
  29 H29            1.4550    -0.5087     0.2447 H       
  30 H30            0.8911     3.1671     0.3608 H       
  31 H31            2.0844     1.8790     0.6526 H       
  32 H32           -0.3126     5.3842    -3.4316 H       
  33 H33           -1.8879     5.3164     0.5115 H       
  34 H34           -1.8593     7.7375    -1.7116 H       
  35 H35           -2.5785     6.7103    -2.9748 H       
  36 H36           -3.2343     6.6770    -1.3204 H       
  37 H37            3.1042     0.7023    -1.1256 H       
  38 H38           -0.3944    -2.1289     0.3401 H       
  39 H39           -1.4298     2.6268    -0.0909 H       
  40 H40           -6.7135    -0.3018     0.0201 H       
  41 H41           -7.2977     2.0776    -0.1912 H       
  42 H42           -3.1595     3.1182    -0.1637 H       
  43 H43            2.0237    -0.3407    -3.0621 H       
  44 H44            1.5943     1.2737    -3.7766 H       
  45 H45            4.4208     0.0504    -3.3897 H       
  46 H46            3.8570     1.1620    -4.7116 H       
  47 H47            3.5508     3.0198    -3.1427 H       
  48 H48            4.8005     2.1376    -2.1624 H       
@<TRIPOS>BOND
   1    1    2 ar
   2    1    3 1
   3    1   16 ar
   4    2   14 ar
   5    2   29 1
   6    3    4 1
   7    3   30 1
   8    3   31 1
   9    4    5 am
  10    4   13 1
  11    5    6 1
  12    5   11 2
  13    6    7 2
  14    6    8 1
  15    7   10 1
  16    7   32 1
  17    8    9 2
  18    9   10 1
  19    9   33 1
  20   10   12 1
  21   12   34 1
  22   12   35 1
  23   12   36 1
  24   13   24 1
  25   13   26 1
  26   13   37 1
  27   14   23 ar
  28   14   38 1
  29   15   16 ar
  30   15   17 1
  31   15   23 ar
  32   16   39 1
  33   17   18 ar
  34   17   22 ar
  35   18   19 ar
  36   18   27 1
  37   19   20 ar
  38   19   40 1
  39   20   21 ar
  40   20   41 1
  41   21   22 ar
  42   21   28 1
  43   22   42 1
  44   24   25 1
  45   24   43 1
  46   24   44 1
  47   25   26 1
  48   25   45 1
  49   25   46 1
  50   26   47 1
  51   26   48 1

#	End of record

