#	Name: ASD01811496
#	Creating user name:	WinNT
#	Creation time:	15. 06. 2019 19:26

#	Modifying user name:	WinNT
#	Modification time:	15. 06. 2019 19:26

#	Program:	/corina/corina34_cracker 3.40 0067  02.08.2006

@<TRIPOS>MOLECULE
ASD01811496
  38   39    0    0    0
SMALL
NO_CHARGES


@<TRIPOS>ATOM
   1 C1            -2.1827     1.9112    -0.4028 C.2     
   2 C2            -2.0482     0.4440    -0.5118 C.ar    
   3 C3            -0.8899    -0.1145    -1.0588 C.ar    
   4 C4            -0.7629    -1.4853    -1.1613 C.ar    
   5 C5            -1.7779    -2.3138    -0.7247 C.ar    
   6 C6            -2.9413    -1.7691    -0.1764 C.ar    
   7 C7            -3.0738    -0.3865    -0.0641 C.ar    
   8 O8            -1.2496     2.6303    -0.6990 O.2     
   9 O9            -3.3419     2.4518     0.0197 O.3     
  10 C10           -1.6302    -3.8090    -0.8407 C.3     
  11 C11            0.2228     0.7816    -1.5383 C.3     
  12 C12           -4.0272    -2.6576     0.2895 C.2     
  13 N13           -3.9563    -3.9706     0.3797 N.2     
  14 C14           -5.1089    -4.4532     0.8342 C.2     
  15 C15           -5.9614    -3.3910     1.0454 C.2     
  16 N16           -5.2577    -2.2521     0.6994 N.pl3   
  17 C17           -7.3393    -3.4554     1.5436 C.2     
  18 N18           -8.0850    -2.3347     1.6097 N.am    
  19 O19           -7.8093    -4.5208     1.8972 O.2     
  20 C20           -9.4953    -2.4152     1.9981 C.3     
  21 C21           -7.4854    -1.0361     1.2931 C.3     
  22 H22            0.1342    -1.9118    -1.5852 H       
  23 H23           -3.9692     0.0396     0.3639 H       
  24 H24           -3.3822     3.4164     0.0747 H       
  25 H25           -1.2830    -4.2146     0.1095 H       
  26 H26           -2.5939    -4.2508    -1.0940 H       
  27 H27           -0.9067    -4.0431    -1.6217 H       
  28 H28            0.8488     1.0676    -0.6931 H       
  29 H29            0.8263     0.2497    -2.2739 H       
  30 H30           -0.2019     1.6757    -1.9949 H       
  31 H31           -5.3372    -5.4946     1.0068 H       
  32 H32           -5.5813    -1.3386     0.7395 H       
  33 H33           -9.5802    -2.3171     3.0804 H       
  34 H34          -10.0515    -1.6114     1.5157 H       
  35 H35           -9.9035    -3.3769     1.6873 H       
  36 H36           -7.1449    -1.0358     0.2577 H       
  37 H37           -8.2274    -0.2498     1.4318 H       
  38 H38           -6.6377    -0.8564     1.9544 H       
@<TRIPOS>BOND
   1    1    2 1
   2    1    8 2
   3    1    9 1
   4    2    3 ar
   5    2    7 ar
   6    3    4 ar
   7    3   11 1
   8    4    5 ar
   9    4   22 1
  10    5    6 ar
  11    5   10 1
  12    6    7 ar
  13    6   12 1
  14    7   23 1
  15    9   24 1
  16   10   25 1
  17   10   26 1
  18   10   27 1
  19   11   28 1
  20   11   29 1
  21   11   30 1
  22   12   13 2
  23   12   16 1
  24   13   14 1
  25   14   15 2
  26   14   31 1
  27   15   16 1
  28   15   17 1
  29   16   32 1
  30   17   18 am
  31   17   19 2
  32   18   20 1
  33   18   21 1
  34   20   33 1
  35   20   34 1
  36   20   35 1
  37   21   36 1
  38   21   37 1
  39   21   38 1

#	End of record

