#	Name: ASD05130010
#	Creating user name:	WinNT
#	Creation time:	15. 06. 2019 20:56

#	Modifying user name:	WinNT
#	Modification time:	15. 06. 2019 20:56

#	Program:	/corina/corina34_cracker 3.40 0067  02.08.2006

@<TRIPOS>MOLECULE
ASD05130010
  70   74    0    0    0
SMALL
NO_CHARGES


@<TRIPOS>ATOM
   1 N1             0.6237     2.1944    -1.2503 N.am    
   2 C2             2.0888     2.1041    -1.3406 C.3     
   3 C3             1.9698     0.6323    -0.9215 C.3     
   4 C4             0.5714     0.7540    -1.5427 C.3     
   5 C5            -0.2752     3.1676    -1.0026 C.2     
   6 O6             0.1023     4.3022    -0.7833 O.2     
   7 N7            -1.5925     2.8829    -0.9980 N.am    
   8 N8             2.8726    -0.2744    -1.6433 N.3     
   9 C9             4.2730     0.1391    -1.4825 C.3     
  10 C10            2.6809    -1.6644    -1.2084 C.3     
  11 N11           -6.1372     4.3438    -0.4396 N.am    
  12 C12           -7.0116     5.3034    -0.0789 C.2     
  13 C13           -6.5278     6.5994     0.4032 C.2     
  14 C14           -5.1817     6.8294     0.4848 C.2     
  15 C15           -4.2836     5.8053     0.0999 C.ar    
  16 C16           -2.8981     5.9972     0.1667 C.ar    
  17 N17           -2.0776     5.0347    -0.1936 N.ar    
  18 C18           -2.5140     3.8589    -0.6309 C.ar    
  19 C19           -3.8697     3.5849    -0.7294 C.ar    
  20 C20           -4.7821     4.5674    -0.3604 C.ar    
  21 O21           -8.2090     5.0926    -0.1543 O.2     
  22 C22           -6.6335     3.0498    -0.9144 C.3     
  23 C23           -6.8157     3.0993    -2.4327 C.3     
  24 C24           -7.4900     7.6543     0.7993 C.ar    
  25 C25           -8.1791     7.5543     2.0090 C.ar    
  26 C26           -9.0756     8.5387     2.3764 C.ar    
  27 C27           -9.2933     9.6256     1.5477 C.ar    
  28 C28           -8.6102     9.7322     0.3403 C.ar    
  29 C29           -7.7050     8.7517    -0.0325 C.ar    
  30 N30           -8.8337    10.8340    -0.4962 N.am    
  31 C31           -7.9108    11.1805    -1.4152 C.2     
  32 O32           -6.8416    10.6026    -1.4510 O.2     
  33 N33           -8.1729    12.1678    -2.2945 N.am    
  34 C34           -7.2574    12.4602    -3.3116 C.ar    
  35 C35           -7.7108    12.8463    -4.5661 C.ar    
  36 C36           -6.8047    13.1342    -5.5678 C.ar    
  37 C37           -5.4471    13.0384    -5.3226 C.ar    
  38 C38           -4.9924    12.6542    -4.0745 C.ar    
  39 C39           -5.8934    12.3704    -3.0669 C.ar    
  40 F40          -10.1717    10.5853     1.9119 F       
  41 Cl41          -7.9097     6.1925     3.0515 Cl      
  42 H42            2.4704     2.2377    -2.3529 H       
  43 H43            2.6078     2.7232    -0.6088 H       
  44 H44            1.9676     0.4734     0.1568 H       
  45 H45           -0.1998     0.2251    -0.9827 H       
  46 H46            0.5488     0.5280    -2.6087 H       
  47 H47           -1.8983     1.9977    -1.2506 H       
  48 H48            4.5366     0.1260    -0.4249 H       
  49 H49            4.9198    -0.5490    -2.0267 H       
  50 H50            4.4017     1.1472    -1.8765 H       
  51 H51            1.6784    -1.9951    -1.4801 H       
  52 H52            3.4184    -2.3024    -1.6954 H       
  53 H53            2.8036    -1.7271    -0.1272 H       
  54 H54           -4.8093     7.7797     0.8379 H       
  55 H55           -2.5017     6.9389     0.5168 H       
  56 H56           -4.2113     2.6248    -1.0869 H       
  57 H57           -5.9159     2.2698    -0.6599 H       
  58 H58           -7.5905     2.8317    -0.4405 H       
  59 H59           -7.5333     3.8793    -2.6872 H       
  60 H60           -5.8587     3.3175    -2.9066 H       
  61 H61           -7.1850     2.1366    -2.7859 H       
  62 H62           -9.6084     8.4598     3.3126 H       
  63 H63           -7.1707     8.8354    -0.9673 H       
  64 H64           -9.6527    11.3472    -0.4139 H       
  65 H65           -8.9962    12.6755    -2.2223 H       
  66 H66           -8.7709    12.9211    -4.7583 H       
  67 H67           -7.1567    13.4342    -6.5437 H       
  68 H68           -4.7405    13.2637    -6.1077 H       
  69 H69           -3.9315    12.5799    -3.8862 H       
  70 H70           -5.5375    12.0751    -2.0909 H       
@<TRIPOS>BOND
   1    1    2 1
   2    1    4 1
   3    1    5 am
   4    2    3 1
   5    2   42 1
   6    2   43 1
   7    3    4 1
   8    3    8 1
   9    3   44 1
  10    4   45 1
  11    4   46 1
  12    5    6 2
  13    5    7 am
  14    7   18 1
  15    7   47 1
  16    8    9 1
  17    8   10 1
  18    9   48 1
  19    9   49 1
  20    9   50 1
  21   10   51 1
  22   10   52 1
  23   10   53 1
  24   11   12 am
  25   11   20 1
  26   11   22 1
  27   12   13 1
  28   12   21 2
  29   13   14 2
  30   13   24 1
  31   14   15 1
  32   14   54 1
  33   15   16 ar
  34   15   20 ar
  35   16   17 ar
  36   16   55 1
  37   17   18 ar
  38   18   19 ar
  39   19   20 ar
  40   19   56 1
  41   22   23 1
  42   22   57 1
  43   22   58 1
  44   23   59 1
  45   23   60 1
  46   23   61 1
  47   24   25 ar
  48   24   29 ar
  49   25   26 ar
  50   25   41 1
  51   26   27 ar
  52   26   62 1
  53   27   28 ar
  54   27   40 1
  55   28   29 ar
  56   28   30 1
  57   29   63 1
  58   30   31 am
  59   30   64 1
  60   31   32 2
  61   31   33 am
  62   33   34 1
  63   33   65 1
  64   34   35 ar
  65   34   39 ar
  66   35   36 ar
  67   35   66 1
  68   36   37 ar
  69   36   67 1
  70   37   38 ar
  71   37   68 1
  72   38   39 ar
  73   38   69 1
  74   39   70 1

#	End of record

