#	Name: ASD03451021
#	Creating user name:	WinNT
#	Creation time:	15. 06. 2019 20:42

#	Modifying user name:	WinNT
#	Modification time:	15. 06. 2019 20:42

#	Program:	/corina/corina34_cracker 3.40 0067  02.08.2006

@<TRIPOS>MOLECULE
ASD03451021
  37   40    0    0    0
SMALL
NO_CHARGES


@<TRIPOS>ATOM
   1 C1            -0.0231     1.1261    -0.0243 C.ar    
   2 C2             0.0502    -0.2546     0.0294 C.ar    
   3 C3             1.2906    -0.8648     0.0507 C.ar    
   4 C4             2.4411    -0.0628     0.0170 C.ar    
   5 C5             2.2919     1.3287    -0.0434 C.ar    
   6 N6             1.0648     1.8622    -0.0582 N.ar    
   7 C7             3.7494    -0.7333     0.0528 C.2     
   8 N8             4.7678    -0.3027     0.7259 N.2     
   9 C9             4.6937     0.9305     1.5098 C.3     
  10 C10            4.4302     2.0818     0.5798 C.2     
  11 N11            3.3407     2.1871    -0.0950 N.2     
  12 C12            3.9110    -1.9725    -0.7254 C.2     
  13 C13            3.5737     0.8248     2.5125 C.2     
  14 C14            5.0458    -2.7233    -0.8088 C.2     
  15 C15            4.7519    -3.8082    -1.6530 C.2     
  16 C16            3.4663    -3.6713    -2.0415 C.2     
  17 O17            2.9608    -2.5660    -1.4752 O.3     
  18 S18            2.7961    -0.6723     3.0099 S.3     
  19 C19            1.7323     0.2070     4.1001 C.2     
  20 C20            2.0042     1.5115     4.0355 C.2     
  21 C21            3.0242     1.8521     3.1631 C.2     
  22 Cl22           3.5405     3.4924     2.9246 Cl      
  23 N23            5.3811     3.0502     0.4475 N.pl3   
  24 C24            5.1518     4.1840    -0.4515 C.3     
  25 H25           -0.9903     1.6064    -0.0430 H       
  26 H26           -0.8513    -0.8489     0.0547 H       
  27 H27            1.3725    -1.9409     0.0929 H       
  28 H28            5.6382     1.0899     2.0299 H       
  29 H29            5.9884    -2.5230    -0.3212 H       
  30 H30            5.4273    -4.6014    -1.9375 H       
  31 H31            2.9319    -4.3435    -2.6965 H       
  32 H32            0.9745    -0.2406     4.7259 H       
  33 H33            1.4720     2.2456     4.6221 H       
  34 H34            6.2093     2.9884     0.9486 H       
  35 H35            4.2641     4.7288    -0.1301 H       
  36 H36            6.0152     4.8487    -0.4256 H       
  37 H37            5.0054     3.8181    -1.4678 H       
@<TRIPOS>BOND
   1    1    2 ar
   2    1    6 ar
   3    1   25 1
   4    2    3 ar
   5    2   26 1
   6    3    4 ar
   7    3   27 1
   8    4    5 ar
   9    4    7 1
  10    5    6 ar
  11    5   11 1
  12    7    8 2
  13    7   12 1
  14    8    9 1
  15    9   10 1
  16    9   13 1
  17    9   28 1
  18   10   11 2
  19   10   23 1
  20   12   14 2
  21   12   17 1
  22   13   18 1
  23   13   21 2
  24   14   15 1
  25   14   29 1
  26   15   16 2
  27   15   30 1
  28   16   17 1
  29   16   31 1
  30   18   19 1
  31   19   20 2
  32   19   32 1
  33   20   21 1
  34   20   33 1
  35   21   22 1
  36   23   24 1
  37   23   34 1
  38   24   35 1
  39   24   36 1
  40   24   37 1

#	End of record

