#	Name: ASD01911073
#	Creating user name:	WinNT
#	Creation time:	15. 06. 2019 19:57

#	Modifying user name:	WinNT
#	Modification time:	15. 06. 2019 19:57

#	Program:	/corina/corina34_cracker 3.40 0067  02.08.2006

@<TRIPOS>MOLECULE
ASD01911073
  52   55    0    0    0
SMALL
NO_CHARGES


@<TRIPOS>ATOM
   1 N1             0.1382     1.3762    -0.1934 N.3     
   2 C2             0.0786    -0.0897    -0.1188 C.3     
   3 C3            -1.3672    -0.5263     0.1408 C.3     
   4 N4            -2.2297     0.0799    -0.8848 N.am    
   5 C5            -2.1263     1.5292    -1.1131 C.3     
   6 C6            -0.6507     1.8848    -1.3234 C.3     
   7 C7            -3.0915    -0.6728    -1.5969 C.2     
   8 C8            -4.0361    -0.0285    -2.5336 C.ar    
   9 C9            -4.3105    -0.6211    -3.7686 C.ar    
  10 C10           -5.1919    -0.0216    -4.6458 C.ar    
  11 C11           -5.8092     1.1682    -4.3098 C.ar    
  12 C12           -5.5434     1.7730    -3.0756 C.ar    
  13 C13           -4.6587     1.1681    -2.1838 C.ar    
  14 C14           -6.1827     3.0062    -2.7277 C.1     
  15 O15           -3.0920    -1.8817    -1.4689 O.2     
  16 C16           -6.7069     4.0172    -2.4425 C.1     
  17 C17           -7.3462     5.2504    -2.0946 C.ar    
  18 C18           -7.0883     5.8626    -0.8656 C.ar    
  19 N19           -7.6767     6.9966    -0.5464 N.ar    
  20 C20           -8.5234     7.5960    -1.3613 C.ar    
  21 C21           -8.8322     7.0544    -2.5966 C.ar    
  22 C22           -8.2372     5.8672    -2.9835 C.ar    
  23 C23            1.4543     1.8183    -0.2655 C.ar    
  24 Cl24          -6.9155     1.9144    -5.4202 Cl      
  25 C25            1.7191     3.1792    -0.3427 C.ar    
  26 C26            3.0395     3.6063    -0.4137 C.ar    
  27 C27            4.0490     2.6443    -0.4044 C.ar    
  28 C28            3.7082     1.3109    -0.3257 C.ar    
  29 N29            2.4439     0.9371    -0.2543 N.ar    
  30 O30            3.3395     4.9280    -0.4908 O.3     
  31 C31            4.7237     5.2761    -0.5603 C.3     
  32 H32            0.4237    -0.5161    -1.0607 H       
  33 H33            0.7155    -0.4388     0.6939 H       
  34 H34           -1.4376    -1.6124     0.0832 H       
  35 H35           -1.6800    -0.1881     1.1287 H       
  36 H36           -2.6986     1.8019    -1.9998 H       
  37 H37           -2.5120     2.0649    -0.2458 H       
  38 H38           -0.5426     2.9677    -1.3843 H       
  39 H39           -0.2954     1.4309    -2.2486 H       
  40 H40           -3.8314    -1.5507    -4.0380 H       
  41 H41           -5.3996    -0.4844    -5.5992 H       
  42 H42           -4.4496     1.6297    -1.2301 H       
  43 H43           -6.4010     5.4019    -0.1715 H       
  44 H44           -8.9837     8.5251    -1.0590 H       
  45 H45           -9.5272     7.5558    -3.2538 H       
  46 H46           -8.4599     5.4226    -3.9422 H       
  47 H47            0.9107     3.8953    -0.3478 H       
  48 H48            5.0861     2.9405    -0.4586 H       
  49 H49            4.4862     0.5619    -0.3185 H       
  50 H50            4.8232     6.3600    -0.6179 H       
  51 H51            5.2353     4.9111     0.3303 H       
  52 H52            5.1683     4.8227    -1.4462 H       
@<TRIPOS>BOND
   1    1    2 1
   2    1   23 1
   3    1    6 1
   4    2    3 1
   5    2   32 1
   6    2   33 1
   7    3    4 1
   8    3   34 1
   9    3   35 1
  10    4    5 1
  11    4    7 am
  12    5    6 1
  13    5   36 1
  14    5   37 1
  15    6   38 1
  16    6   39 1
  17    7    8 1
  18    7   15 2
  19    8    9 ar
  20    8   13 ar
  21    9   10 ar
  22    9   40 1
  23   10   11 ar
  24   10   41 1
  25   11   12 ar
  26   11   24 1
  27   12   13 ar
  28   12   14 1
  29   13   42 1
  30   14   16 3
  31   16   17 1
  32   17   18 ar
  33   17   22 ar
  34   18   19 ar
  35   18   43 1
  36   19   20 ar
  37   20   21 ar
  38   20   44 1
  39   21   22 ar
  40   21   45 1
  41   22   46 1
  42   23   25 ar
  43   23   29 ar
  44   25   26 ar
  45   25   47 1
  46   26   27 ar
  47   26   30 1
  48   27   28 ar
  49   27   48 1
  50   28   29 ar
  51   28   49 1
  52   30   31 1
  53   31   50 1
  54   31   51 1
  55   31   52 1

#	End of record

