#	Name: ASD01916173
#	Creating user name:	WinNT
#	Creation time:	15. 06. 2019 20:06

#	Modifying user name:	WinNT
#	Modification time:	15. 06. 2019 20:06

#	Program:	/corina/corina34_cracker 3.40 0067  02.08.2006

@<TRIPOS>MOLECULE
ASD01916173
  47   50    0    0    0
SMALL
NO_CHARGES


@<TRIPOS>ATOM
   1 C1             0.9476     1.5044    -0.3716 C.ar    
   2 C2             1.1551     0.1452    -0.2373 C.ar    
   3 C3             0.1299    -0.6700     0.2198 C.ar    
   4 C4            -1.1015    -0.1177     0.5410 C.ar    
   5 C5            -1.3040     1.2421     0.4051 C.ar    
   6 C6            -0.2806     2.0524    -0.0508 C.ar    
   7 O7             0.3314    -2.0074     0.3523 O.3     
   8 C8             1.6557    -2.4904     0.1174 C.3     
   9 C9             1.8585    -3.7835     0.8642 C.2     
  10 C10            2.7543    -3.9891     1.9213 C.2     
  11 N11            1.2234    -4.9073     0.6401 N.2     
  12 N12            1.6949    -5.8625     1.5446 N.pl3   
  13 C13            2.6373    -5.2714     2.3150 C.2     
  14 C14            1.2621    -7.2569     1.6706 C.3     
  15 C15            2.3260    -8.0487     2.4386 C.3     
  16 N16            2.7409    -7.2807     3.6224 N.am    
  17 C17            3.3999    -5.9793     3.4097 C.3     
  18 C18            2.5222    -7.7506     4.8665 C.2     
  19 C19            3.0483    -7.0174     6.0361 C.ar    
  20 O20            1.8921    -8.7779     5.0262 O.2     
  21 C21            2.3479    -7.0301     7.2442 C.ar    
  22 C22            4.0350    -5.6429     8.2291 C.ar    
  23 C23            4.7373    -5.6317     7.0337 C.ar    
  24 C24            4.2507    -6.3138     5.9392 C.ar    
  25 C25            2.8435    -6.3447     8.3325 C.ar    
  26 F26            4.5161    -4.9724     9.2987 F       
  27 C27            1.8529    -2.7303    -1.3807 C.3     
  28 H28            2.3785    -1.7526     0.4655 H       
  29 H29            1.7468     2.1400    -0.7231 H       
  30 H30            2.1146    -0.2824    -0.4884 H       
  31 H31           -1.9013    -0.7503     0.8968 H       
  32 H32           -2.2625     1.6725     0.6547 H       
  33 H33           -0.4408     3.1152    -0.1564 H       
  34 H34            3.4196    -3.2512     2.3447 H       
  35 H35            0.3169    -7.2972     2.2121 H       
  36 H36            1.1325    -7.6889     0.6783 H       
  37 H37            1.9109    -9.0063     2.7530 H       
  38 H38            3.1886    -8.2190     1.7944 H       
  39 H39            4.4337    -6.1321     3.1001 H       
  40 H40            3.3685    -5.3922     4.3276 H       
  41 H41            1.4195    -7.5758     7.3255 H       
  42 H42            5.6671    -5.0872     6.9598 H       
  43 H43            4.7985    -6.3044     5.0085 H       
  44 H44            2.3027    -6.3538     9.2672 H       
  45 H45            1.7061    -1.7949    -1.9208 H       
  46 H46            2.8630    -3.0987    -1.5598 H       
  47 H47            1.1300    -3.4681    -1.7288 H       
@<TRIPOS>BOND
   1    1    2 ar
   2    1    6 ar
   3    1   29 1
   4    2    3 ar
   5    2   30 1
   6    3    4 ar
   7    3    7 1
   8    4    5 ar
   9    4   31 1
  10    5    6 ar
  11    5   32 1
  12    6   33 1
  13    7    8 1
  14    8    9 1
  15    8   27 1
  16    8   28 1
  17    9   10 1
  18    9   11 2
  19   10   13 2
  20   10   34 1
  21   11   12 1
  22   12   13 1
  23   12   14 1
  24   13   17 1
  25   14   15 1
  26   14   35 1
  27   14   36 1
  28   15   16 1
  29   15   37 1
  30   15   38 1
  31   16   17 1
  32   16   18 am
  33   17   39 1
  34   17   40 1
  35   18   19 1
  36   18   20 2
  37   19   21 ar
  38   19   24 ar
  39   21   25 ar
  40   21   41 1
  41   22   23 ar
  42   22   26 1
  43   22   25 ar
  44   23   24 ar
  45   23   42 1
  46   24   43 1
  47   25   44 1
  48   27   45 1
  49   27   46 1
  50   27   47 1

#	End of record

