#	Name: ASD00841982
#	Creating user name:	WinNT
#	Creation time:	15. 06. 2019 18:43

#	Modifying user name:	WinNT
#	Modification time:	15. 06. 2019 18:43

#	Program:	/corina/corina34_cracker 3.40 0067  02.08.2006

@<TRIPOS>MOLECULE
ASD00841982
  91   96    0    0    0
SMALL
NO_CHARGES


@<TRIPOS>ATOM
   1 C1             0.9749     1.5491    -0.3289 C.ar    
   2 C2             1.2892     0.2243    -0.5939 C.ar    
   3 C3             1.2357    -0.7162     0.4248 C.ar    
   4 C4             0.8698    -0.3313     1.6999 C.ar    
   5 C5             0.5566     0.9899     1.9615 C.ar    
   6 C6             0.6095     1.9290     0.9483 C.ar    
   7 C7             1.5760    -2.1564     0.1403 C.3     
   8 C8             1.3241    -3.0128     1.3629 C.2     
   9 C9             0.7668    -2.6719    -1.0516 C.3     
  10 C10           -0.7022    -2.4598    -0.7908 C.2     
  11 N11           -1.6163    -2.9335    -1.6605 N.am    
  12 O12           -1.0619    -1.8628     0.2018 O.2     
  13 C13           -3.0472    -2.6417    -1.4854 C.3     
  14 C14           -3.5969    -2.0915    -2.8058 C.3     
  15 N15           -3.2826    -3.0292    -3.8920 N.3     
  16 C16           -1.8315    -3.1620    -4.0781 C.3     
  17 C17           -1.2088    -3.7510    -2.8133 C.3     
  18 C18           -3.9390    -2.6254    -5.1426 C.3     
  19 C19           -3.4909    -3.5504    -6.2776 C.3     
  20 C20           -4.2239    -3.1633    -7.5640 C.3     
  21 N21           -5.6731    -3.2794    -7.3570 N.3     
  22 C22           -6.1339    -2.3657    -6.3039 C.3     
  23 C23           -5.4580    -2.7289    -4.9798 C.3     
  24 C24           -6.4040    -3.0495    -8.6104 C.3     
  25 O25            0.2586    -3.1805     1.9175 O.2     
  26 N26            2.5017    -3.5529     1.7181 N.am    
  27 C27            3.0581    -2.3102    -0.1154 C.ar    
  28 C28            3.5387    -3.1634     0.8751 C.ar    
  29 C29            3.8965    -1.7911    -1.0692 C.ar    
  30 C30            5.2568    -2.1193    -1.0533 C.ar    
  31 C31            5.7470    -2.9764    -0.0606 C.ar    
  32 C32            4.8942    -3.4925     0.8915 C.ar    
  33 F33            7.0586    -3.2994    -0.0366 F       
  34 C34            2.4513    -6.2110     2.4294 C.ar    
  35 C35            3.5230    -6.9439     1.9550 C.ar    
  36 C36            1.1872    -6.7701     2.4515 C.ar    
  37 C37            0.9949    -8.0622     1.9992 C.ar    
  38 C38            2.0666    -8.7949     1.5244 C.ar    
  39 C39            3.3306    -8.2358     1.5022 C.ar    
  40 H40            1.9164    -9.8044     1.1710 H       
  41 H41            4.5106    -6.5071     1.9376 H       
  42 C42           -7.8962    -3.3005    -8.3840 C.3     
  43 C43           -6.1933    -1.6041    -9.0658 C.3     
  44 S44            2.6976    -4.5667     3.0127 S.o2    
  45 O45            4.0644    -4.4755     3.3905 O.2     
  46 O46            1.6250    -4.2920     3.9034 O.2     
  47 O47            1.6485    -0.1520    -1.8494 O.3     
  48 C48            2.1080     0.2683    -4.1845 C.3     
  49 C49            1.5732     0.8437    -2.8716 C.3     
  50 C50            6.1402    -1.5832    -2.0446 C.1     
  51 N51            6.8411    -1.1579    -2.8310 N.1     
  52 H52            1.0202     2.2838    -1.1192 H       
  53 H53            0.8280    -1.0630     2.4932 H       
  54 H54            0.2700     1.2887     2.9590 H       
  55 H55            0.3644     2.9602     1.1551 H       
  56 H56            1.0583    -2.1290    -1.9507 H       
  57 H57            0.9614    -3.7354    -1.1902 H       
  58 H58           -3.5777    -3.5563    -1.2207 H       
  59 H59           -3.1757    -1.8994    -0.6977 H       
  60 H60           -4.6777    -1.9733    -2.7287 H       
  61 H61           -3.1389    -1.1249    -3.0158 H       
  62 H62           -1.6320    -3.8202    -4.9238 H       
  63 H63           -1.3981    -2.1805    -4.2705 H       
  64 H64           -0.1225    -3.7447    -2.9029 H       
  65 H65           -1.5616    -4.7727    -2.6731 H       
  66 H66           -3.6665    -1.5973    -5.3814 H       
  67 H67           -2.4159    -3.4491    -6.4267 H       
  68 H68           -3.7276    -4.5828    -6.0204 H       
  69 H69           -3.9760    -2.1353    -7.8280 H       
  70 H70           -3.9178    -3.8292    -8.3708 H       
  71 H71           -5.8770    -1.3414    -6.5738 H       
  72 H72           -7.2151    -2.4523    -6.1955 H       
  73 H73           -5.7255    -3.7485    -4.7023 H       
  74 H74           -5.7883    -2.0407    -4.2018 H       
  75 H75           -6.0333    -3.7298    -9.3772 H       
  76 H76            3.5076    -1.1312    -1.8306 H       
  77 H77            5.2776    -4.1533     1.6548 H       
  78 H78            0.3499    -6.1977     2.8225 H       
  79 H79            0.0075    -8.4993     2.0172 H       
  80 H80            4.1680    -8.8084     1.1316 H       
  81 H81           -8.0462    -4.3302    -8.0595 H       
  82 H82           -8.2668    -2.6203    -7.6172 H       
  83 H83           -8.4385    -3.1299    -9.3140 H       
  84 H84           -5.1302    -1.4253    -9.2271 H       
  85 H85           -6.7356    -1.4335    -9.9958 H       
  86 H86           -6.5640    -0.9239    -8.2991 H       
  87 H87            3.1155    -0.1174    -4.0284 H       
  88 H88            1.4573    -0.5397    -4.5189 H       
  89 H89            2.1323     1.0521    -4.9416 H       
  90 H90            0.5355     1.1497    -3.0051 H       
  91 H91            2.1723     1.7072    -2.5826 H       
@<TRIPOS>BOND
   1    1    2 ar
   2    1    6 ar
   3    1   52 1
   4    2    3 ar
   5    2   47 1
   6    3    4 ar
   7    3    7 1
   8    4    5 ar
   9    4   53 1
  10    5    6 ar
  11    5   54 1
  12    6   55 1
  13    7    8 1
  14    7    9 1
  15    7   27 1
  16    8   25 2
  17    8   26 am
  18    9   10 1
  19    9   56 1
  20    9   57 1
  21   10   11 am
  22   10   12 2
  23   11   13 1
  24   11   17 1
  25   13   14 1
  26   13   58 1
  27   13   59 1
  28   14   15 1
  29   14   60 1
  30   14   61 1
  31   15   16 1
  32   15   18 1
  33   16   17 1
  34   16   62 1
  35   16   63 1
  36   17   64 1
  37   17   65 1
  38   18   19 1
  39   18   23 1
  40   18   66 1
  41   19   20 1
  42   19   67 1
  43   19   68 1
  44   20   21 1
  45   20   69 1
  46   20   70 1
  47   21   22 1
  48   21   24 1
  49   22   23 1
  50   22   71 1
  51   22   72 1
  52   23   73 1
  53   23   74 1
  54   24   42 1
  55   24   43 1
  56   24   75 1
  57   26   44 am
  58   26   28 1
  59   27   28 ar
  60   27   29 ar
  61   28   32 ar
  62   29   30 ar
  63   29   76 1
  64   30   31 ar
  65   30   50 1
  66   31   32 ar
  67   31   33 1
  68   32   77 1
  69   34   35 ar
  70   34   36 ar
  71   34   44 1
  72   35   41 1
  73   35   39 ar
  74   36   37 ar
  75   36   78 1
  76   37   38 ar
  77   37   79 1
  78   38   39 ar
  79   38   40 1
  80   39   80 1
  81   42   81 1
  82   42   82 1
  83   42   83 1
  84   43   84 1
  85   43   85 1
  86   43   86 1
  87   44   45 2
  88   44   46 2
  89   47   49 1
  90   48   49 1
  91   48   87 1
  92   48   88 1
  93   48   89 1
  94   49   90 1
  95   49   91 1
  96   50   51 3

#	End of record

