#	Name: ASD01814575
#	Creating user name:	WinNT
#	Creation time:	15. 06. 2019 19:32

#	Modifying user name:	WinNT
#	Modification time:	15. 06. 2019 19:32

#	Program:	/corina/corina34_cracker 3.40 0067  02.08.2006

@<TRIPOS>MOLECULE
ASD01814575
  40   43    0    0    0
SMALL
NO_CHARGES


@<TRIPOS>ATOM
   1 C1             7.1884     1.5355     0.2346 C.2     
   2 C2             7.2236     0.1346     0.2282 C.2     
   3 C3             6.0564    -0.5660     0.1394 C.2     
   4 C4             4.8385     0.1291     0.0558 C.2     
   5 N5             4.8335     1.4975     0.0638 N.am    
   6 C6             6.0063     2.1871     0.1533 C.2     
   7 C7             3.6376    -0.5886    -0.0357 C.2     
   8 C8             2.4490     0.0769    -0.1179 C.2     
   9 C9             2.4477     1.4841    -0.1088 C.2     
  10 C10            3.6719     2.1773    -0.0162 C.2     
  11 O11            3.6800     3.3966    -0.0073 O.2     
  12 C12            1.1857     2.2222    -0.1963 C.2     
  13 O13            1.1912     3.5711    -0.1871 O.3     
  14 O14            0.1326     1.6188    -0.2771 O.2     
  15 C15            3.6593    -2.0954    -0.0439 C.3     
  16 N16            3.6580    -2.5776    -1.4315 N.3     
  17 C17            4.0500    -4.0038    -1.4980 C.3     
  18 C18            3.2721    -4.5876    -2.6554 C.ar    
  19 C19            2.2274    -3.7293    -2.9527 C.ar    
  20 C20            2.2906    -2.5582    -1.9987 C.3     
  21 C21            3.4424    -5.7472    -3.3874 C.ar    
  22 C22            2.5702    -6.0502    -4.4160 C.ar    
  23 C23            1.5271    -5.1928    -4.7132 C.ar    
  24 C24            1.3559    -4.0329    -3.9811 C.ar    
  25 H25            8.1082     2.0967     0.3092 H       
  26 H26            8.1675    -0.3864     0.2928 H       
  27 H27            6.0686    -1.6459     0.1330 H       
  28 H28            5.9910     3.2669     0.1588 H       
  29 H29            1.5204    -0.4699    -0.1893 H       
  30 H30            0.3337     4.0141    -0.2469 H       
  31 H31            4.5575    -2.4486     0.4626 H       
  32 H32            2.7778    -2.4743     0.4732 H       
  33 H33            5.1208    -4.0918    -1.6815 H       
  34 H34            3.7832    -4.5112    -0.5709 H       
  35 H35            1.5523    -2.6782    -1.2058 H       
  36 H36            2.1189    -1.6253    -2.5358 H       
  37 H37            4.2575    -6.4168    -3.1560 H       
  38 H38            2.7037    -6.9567    -4.9878 H       
  39 H39            0.8461    -5.4293    -5.5173 H       
  40 H40            0.5410    -3.3633    -4.2135 H       
@<TRIPOS>BOND
   1    1    2 1
   2    1    6 2
   3    1   25 1
   4    2    3 2
   5    2   26 1
   6    3    4 1
   7    3   27 1
   8    4    5 1
   9    4    7 2
  10    5    6 1
  11    5   10 am
  12    6   28 1
  13    7    8 1
  14    7   15 1
  15    8    9 2
  16    8   29 1
  17    9   10 1
  18    9   12 1
  19   10   11 2
  20   12   13 1
  21   12   14 2
  22   13   30 1
  23   15   16 1
  24   15   31 1
  25   15   32 1
  26   16   17 1
  27   16   20 1
  28   17   18 1
  29   17   33 1
  30   17   34 1
  31   18   19 ar
  32   18   21 ar
  33   19   20 1
  34   19   24 ar
  35   20   35 1
  36   20   36 1
  37   21   22 ar
  38   21   37 1
  39   22   23 ar
  40   22   38 1
  41   23   24 ar
  42   23   39 1
  43   24   40 1

#	End of record

