#	Name: ASD01910185
#	Creating user name:	WinNT
#	Creation time:	15. 06. 2019 19:55

#	Modifying user name:	WinNT
#	Modification time:	15. 06. 2019 19:55

#	Program:	/corina/corina34_cracker 3.40 0067  02.08.2006

@<TRIPOS>MOLECULE
ASD01910185
  54   58    0    0    0
SMALL
NO_CHARGES


@<TRIPOS>ATOM
   1 C1             0.0190     1.3739     0.7856 C.ar    
   2 C2             0.3628     0.0384     0.8669 C.ar    
   3 C3             1.4922    -0.4311     0.2077 C.ar    
   4 C4             2.2751     0.4427    -0.5325 C.ar    
   5 C5             1.9271     1.7839    -0.6121 C.ar    
   6 C6             0.7966     2.2470     0.0492 C.ar    
   7 N7             2.7138     2.6682    -1.3569 N.am    
   8 C8             3.2940     2.2543    -2.5008 C.2     
   9 C9             4.0405     3.2148    -3.3406 C.ar    
  10 N10            1.8400    -1.7839     0.2909 N.am    
  11 C11            0.8772    -2.7231     0.3777 C.2     
  12 C12            4.6425     2.7893    -4.5257 C.ar    
  13 C13            5.3376     3.6905    -5.3057 C.ar    
  14 C14            5.4394     5.0136    -4.9155 C.ar    
  15 C15            4.8447     5.4431    -3.7408 C.ar    
  16 C16            4.1415     4.5525    -2.9545 C.ar    
  17 O17           -0.2900    -2.4049     0.2907 O.2     
  18 O18            3.2034     1.0910    -2.8420 O.2     
  19 C19            2.5026    -6.1076    -0.3739 C.3     
  20 C20            1.2327    -6.9586    -0.3106 C.3     
  21 C21            0.3603    -6.4870     0.8545 C.3     
  22 C22           -0.0190    -5.0195     0.6462 C.3     
  23 C23            1.2509    -4.1685     0.5829 C.3     
  24 C24            2.1233    -4.6401    -0.5822 C.3     
  25 C25            2.0277    -4.3134     1.8930 C.3     
  26 C26            2.4071    -5.7809     2.1013 C.3     
  27 C27            3.2795    -6.2525     0.9362 C.3     
  28 C28            1.1372    -6.6320     2.1646 C.3     
  29 Cl29           4.9781     7.1057    -3.2596 Cl      
  30 H30           -0.8619     1.7355     1.2952 H       
  31 H31           -0.2469    -0.6414     1.4436 H       
  32 H32            3.1537     0.0803    -1.0454 H       
  33 H33            0.5249     3.2905    -0.0126 H       
  34 H34            2.8419     3.5795    -1.0503 H       
  35 H35            2.7739    -2.0458     0.2861 H       
  36 H36            4.5646     1.7564    -4.8316 H       
  37 H37            5.8037     3.3620    -6.2229 H       
  38 H38            5.9853     5.7148    -5.5294 H       
  39 H39            3.6780     4.8880    -2.0385 H       
  40 H40            3.1241    -6.4435    -1.2039 H       
  41 H41            0.6793    -6.8554    -1.2439 H       
  42 H42            1.5030    -8.0041    -0.1622 H       
  43 H43           -0.5444    -7.0933     0.8996 H       
  44 H44           -0.5725    -4.9163    -0.2871 H       
  45 H45           -0.6406    -4.6836     1.4762 H       
  46 H46            3.0280    -4.0338    -0.6273 H       
  47 H47            1.5698    -4.5368    -1.5155 H       
  48 H48            2.9324    -3.7071     1.8479 H       
  49 H49            1.4062    -3.9775     2.7230 H       
  50 H50            2.9606    -5.8842     3.0346 H       
  51 H51            3.5498    -7.2980     1.0846 H       
  52 H52            4.1842    -5.6462     0.8911 H       
  53 H53            0.5157    -6.2960     2.9946 H       
  54 H54            1.4075    -7.6774     2.3130 H       
@<TRIPOS>BOND
   1    1    2 ar
   2    1    6 ar
   3    1   30 1
   4    2    3 ar
   5    2   31 1
   6    3    4 ar
   7    3   10 1
   8    4    5 ar
   9    4   32 1
  10    5    6 ar
  11    5    7 1
  12    6   33 1
  13    7    8 am
  14    7   34 1
  15    8    9 1
  16    8   18 2
  17    9   12 ar
  18    9   16 ar
  19   10   11 am
  20   10   35 1
  21   11   17 2
  22   11   23 1
  23   12   13 ar
  24   12   36 1
  25   13   14 ar
  26   13   37 1
  27   14   15 ar
  28   14   38 1
  29   15   16 ar
  30   15   29 1
  31   16   39 1
  32   19   20 1
  33   19   24 1
  34   19   27 1
  35   19   40 1
  36   20   21 1
  37   20   41 1
  38   20   42 1
  39   21   22 1
  40   21   28 1
  41   21   43 1
  42   22   23 1
  43   22   44 1
  44   22   45 1
  45   23   24 1
  46   23   25 1
  47   24   46 1
  48   24   47 1
  49   25   26 1
  50   25   48 1
  51   25   49 1
  52   26   27 1
  53   26   28 1
  54   26   50 1
  55   27   51 1
  56   27   52 1
  57   28   53 1
  58   28   54 1

#	End of record

