#	Name: ASD02448141
#	Creating user name:	WinNT
#	Creation time:	15. 06. 2019 20:21

#	Modifying user name:	WinNT
#	Modification time:	15. 06. 2019 20:21

#	Program:	/corina/corina34_cracker 3.40 0067  02.08.2006

@<TRIPOS>MOLECULE
ASD02448141
  96  102    0    0    0
SMALL
NO_CHARGES


@<TRIPOS>ATOM
   1 C1             3.5516    -7.4488    -1.4613 C.ar    
   2 C2             2.9939    -6.4102    -0.7430 C.ar    
   3 C3             2.3389    -5.3809    -1.4055 C.ar    
   4 C4             2.2439    -5.3959    -2.7904 C.ar    
   5 C5             2.8013    -6.4341    -3.5095 C.ar    
   6 C6             3.4572    -7.4640    -2.8471 C.ar    
   7 N7             4.0223    -8.5155    -3.5750 N.am    
   8 C8             5.1356    -9.3891    -3.1822 C.3     
   9 C9             5.4382   -10.3952    -4.2454 C.2     
  10 N10            4.6576   -10.3157    -5.3323 N.am    
  11 S11            3.5816    -9.0698    -5.0855 S.o2    
  12 O12            6.3213   -11.2189    -4.1337 O.2     
  13 O13            2.2894    -9.6491    -4.9670 O.2     
  14 O14            3.9086    -8.0437    -6.0125 O.2     
  15 N15            1.7720    -4.3251    -0.6748 N.pl3   
  16 C16            0.8533    -4.4375     0.3338 C.2     
  17 C17            2.0376    -3.0021    -0.8332 C.2     
  18 N18            1.3243    -2.3234     0.0217 N.2     
  19 C19            0.5820    -3.1753     0.7576 C.2     
  20 C20           -0.3630    -2.8009     1.8382 C.ar    
  21 C21           -0.5466    -1.4595     2.1738 C.ar    
  22 C22           -1.0745    -3.7875     2.5175 C.ar    
  23 C23           -1.9526    -3.4342     3.5221 C.ar    
  24 C24           -2.1274    -2.1022     3.8557 C.ar    
  25 C25           -1.4275    -1.1169     3.1804 C.ar    
  26 C26            4.3384    -2.1985    -1.1753 C.ar    
  27 C27            5.2497    -3.2370    -1.1093 C.ar    
  28 C28            4.6531    -0.9605    -0.6447 C.ar    
  29 C29            5.8796    -0.7550    -0.0461 C.ar    
  30 C30            6.8015    -1.7977     0.0233 C.ar    
  31 C31            6.4789    -3.0430    -0.5125 C.ar    
  32 C32            8.1217    -1.5827     0.6652 C.ar    
  33 Cl33          -3.2339    -1.6652     5.1200 Cl      
  34 Cl34           0.3310    -0.2233     1.3279 Cl      
  35 C35            3.0000    -2.4150    -1.8333 C.3     
  36 C36            9.0429    -2.6264     0.7339 C.ar    
  37 C37           10.2693    -2.4236     1.3312 C.ar    
  38 C38           10.5865    -1.1815     1.8642 C.ar    
  39 C39            9.6707    -0.1402     1.7976 C.ar    
  40 C40            8.4454    -0.3351     1.1956 C.ar    
  41 O41           11.7953    -0.9848     2.4525 O.3     
  42 C42           12.7346    -2.0593     2.3801 C.3     
  43 C43           14.1553    -1.5037     2.5020 C.3     
  44 C44           15.1606    -2.6541     2.3893 C.3     
  45 N45           14.8243    -3.6757     3.3902 N.am    
  46 C46           13.4570    -4.2127     3.4198 C.3     
  47 C47           12.4708    -3.0448     3.5209 C.3     
  48 C48           15.7526    -4.1124     4.2644 C.2     
  49 O49           16.8801    -3.6608     4.2294 O.2     
  50 O50           15.4306    -5.0491     5.1763 O.3     
  51 C51           16.4804    -5.4721     6.0858 C.3     
  52 C52           15.9305    -6.5329     7.0414 C.3     
  53 C53           15.4368    -7.7371     6.2371 C.3     
  54 C54           17.0368    -6.9786     7.9998 C.3     
  55 C55           14.7681    -5.9437     7.8431 C.3     
  56 H56            4.0650    -8.2472    -0.9462 H       
  57 H57            3.0669    -6.3985     0.3344 H       
  58 H58            1.7336    -4.5954    -3.3054 H       
  59 H59            2.7271    -6.4459    -4.5869 H       
  60 H60            6.0219    -8.7800    -3.0045 H       
  61 H61            4.8727    -9.9105    -2.2618 H       
  62 H62            4.7084   -10.8826    -6.1177 H       
  63 H63            0.4267    -5.3522     0.7182 H       
  64 H64           -0.9395    -4.8272     2.2582 H       
  65 H65           -2.5047    -4.1986     4.0488 H       
  66 H66           -1.5674    -0.0790     3.4444 H       
  67 H67            4.9987    -4.2016    -1.5251 H       
  68 H68            3.9380    -0.1530    -0.6994 H       
  69 H69            6.1245     0.2121     0.3675 H       
  70 H70            7.1895    -3.8546    -0.4611 H       
  71 H71            3.1145    -3.1004    -2.6730 H       
  72 H72            2.6134    -1.4613    -2.1929 H       
  73 H73            8.7964    -3.5931     0.3201 H       
  74 H74           10.9835    -3.2320     1.3848 H       
  75 H75            9.9199     0.8248     2.2137 H       
  76 H76            7.7335     0.4754     1.1438 H       
  77 H77           12.6261    -2.5727     1.4247 H       
  78 H78           14.3345    -0.7844     1.7029 H       
  79 H79           14.2720    -1.0118     3.4677 H       
  80 H80           15.1079    -3.0890     1.3912 H       
  81 H81           16.1673    -2.2790     2.5740 H       
  82 H82           13.2653    -4.7747     2.5057 H       
  83 H83           13.3396    -4.8660     4.2843 H       
  84 H84           12.6033    -2.5384     4.4770 H       
  85 H85           11.4510    -3.4224     3.4470 H       
  86 H86           17.3086    -5.8918     5.5147 H       
  87 H87           16.8322    -4.6142     6.6588 H       
  88 H88           16.2649    -8.1568     5.6660 H       
  89 H89           15.0450    -8.4928     6.9179 H       
  90 H90           14.6487    -7.4196     5.5544 H       
  91 H91           17.3886    -6.1207     8.5728 H       
  92 H92           16.6451    -7.7343     8.6806 H       
  93 H93           17.8649    -7.3983     7.4287 H       
  94 H94           13.9800    -5.6262     7.1603 H       
  95 H95           14.3764    -6.6994     8.5239 H       
  96 H96           15.1199    -5.0858     8.4161 H       
@<TRIPOS>BOND
   1    1    2 ar
   2    1    6 ar
   3    1   56 1
   4    2    3 ar
   5    2   57 1
   6    3    4 ar
   7    3   15 1
   8    4    5 ar
   9    4   58 1
  10    5    6 ar
  11    5   59 1
  12    6    7 1
  13    7    8 1
  14    7   11 am
  15    8    9 1
  16    8   60 1
  17    8   61 1
  18    9   10 am
  19    9   12 2
  20   10   11 am
  21   10   62 1
  22   11   13 2
  23   11   14 2
  24   15   16 1
  25   15   17 1
  26   16   19 2
  27   16   63 1
  28   17   18 2
  29   17   35 1
  30   18   19 1
  31   19   20 1
  32   20   21 ar
  33   20   22 ar
  34   21   34 1
  35   21   25 ar
  36   22   23 ar
  37   22   64 1
  38   23   24 ar
  39   23   65 1
  40   24   25 ar
  41   24   33 1
  42   25   66 1
  43   26   27 ar
  44   26   28 ar
  45   26   35 1
  46   27   31 ar
  47   27   67 1
  48   28   29 ar
  49   28   68 1
  50   29   30 ar
  51   29   69 1
  52   30   31 ar
  53   30   32 1
  54   31   70 1
  55   32   36 ar
  56   32   40 ar
  57   35   71 1
  58   35   72 1
  59   36   37 ar
  60   36   73 1
  61   37   38 ar
  62   37   74 1
  63   38   39 ar
  64   38   41 1
  65   39   40 ar
  66   39   75 1
  67   40   76 1
  68   41   42 1
  69   42   43 1
  70   42   47 1
  71   42   77 1
  72   43   44 1
  73   43   78 1
  74   43   79 1
  75   44   45 1
  76   44   80 1
  77   44   81 1
  78   45   46 1
  79   45   48 am
  80   46   47 1
  81   46   82 1
  82   46   83 1
  83   47   84 1
  84   47   85 1
  85   48   49 2
  86   48   50 1
  87   50   51 1
  88   51   52 1
  89   51   86 1
  90   51   87 1
  91   52   53 1
  92   52   54 1
  93   52   55 1
  94   53   88 1
  95   53   89 1
  96   53   90 1
  97   54   91 1
  98   54   92 1
  99   54   93 1
 100   55   94 1
 101   55   95 1
 102   55   96 1

#	End of record

