#	Name: ASD01917291
#	Creating user name:	WinNT
#	Creation time:	15. 06. 2019 20:09

#	Modifying user name:	WinNT
#	Modification time:	15. 06. 2019 20:09

#	Program:	/corina/corina34_cracker 3.40 0067  02.08.2006

@<TRIPOS>MOLECULE
ASD01917291
  53   56    0    0    0
SMALL
NO_CHARGES


@<TRIPOS>ATOM
   1 C1            -0.0158     1.3116     0.0093 C.ar    
   2 N2             0.0021    -0.0041     0.0020 N.ar    
   3 C3             1.1550    -0.6685    -0.0125 C.ar    
   4 C4             2.3492     0.0531    -0.0200 C.ar    
   5 C5             2.2795     1.4390    -0.0119 C.ar    
   6 N6             1.0941     2.0240     0.0025 N.ar    
   7 C7             1.1703    -2.1530    -0.0202 C.2     
   8 O8             2.2285    -2.7494    -0.0335 O.2     
   9 N9             0.0102    -2.8389    -0.0124 N.am    
  10 C10            0.0253    -4.3038    -0.0199 C.3     
  11 C11            0.7688    -4.8923     1.1920 C.3     
  12 C12            0.9563    -6.3958     0.9800 C.3     
  13 C13           -0.3945    -7.0712     0.7357 C.3     
  14 C14           -1.0879    -6.3890    -0.4565 C.3     
  15 C15           -0.0311    -6.2213    -1.5726 C.3     
  16 C16            0.6818    -4.8859    -1.2930 C.3     
  17 C17           -1.3935    -4.9318    -0.0199 C.3     
  18 N18           -2.2749    -7.1190    -0.9087 N.am    
  19 C19           -2.1623    -8.3951    -1.3274 C.2     
  20 O20           -1.0762    -8.9402    -1.3299 O.2     
  21 C21           -3.3628    -9.1334    -1.7848 C.ar    
  22 C22           -3.2398   -10.4523    -2.2164 C.ar    
  23 C23           -4.3717   -11.1300    -2.6407 C.ar    
  24 C24           -5.5878   -10.4648    -2.6187 C.ar    
  25 C25           -5.6362    -9.1525    -2.1767 C.ar    
  26 N26           -4.5471    -8.5346    -1.7746 N.ar    
  27 C27           -6.9559    -8.4253    -2.1509 C.3     
  28 C28           -1.3431     2.0252     0.0193 C.3     
  29 H29            3.3028    -0.4537    -0.0315 H       
  30 H30            3.1821     2.0320    -0.0170 H       
  31 H31           -0.8348    -2.3627    -0.0017 H       
  32 H32            1.7431    -4.4135     1.2898 H       
  33 H33            0.1847    -4.7216     2.0963 H       
  34 H34            1.6031    -6.5607     0.1182 H       
  35 H35            1.4217    -6.8296     1.8651 H       
  36 H36           -0.2394    -8.1267     0.5122 H       
  37 H37           -1.0174    -6.9731     1.6248 H       
  38 H38            0.6846    -7.0426    -1.5373 H       
  39 H39           -0.5176    -6.1893    -2.5475 H       
  40 H40            0.5422    -4.2039    -2.1317 H       
  41 H41            1.7445    -5.0573    -1.1216 H       
  42 H42           -1.8321    -4.9066     0.9776 H       
  43 H43           -2.0408    -4.4349    -0.7425 H       
  44 H44           -3.1418    -6.6839    -0.9068 H       
  45 H45           -2.2760   -10.9395    -2.2205 H       
  46 H46           -4.3078   -12.1529    -2.9812 H       
  47 H47           -6.4886   -10.9645    -2.9432 H       
  48 H48           -7.4368    -8.5792    -1.1849 H       
  49 H49           -6.7867    -7.3598    -2.3069 H       
  50 H50           -7.5987    -8.8108    -2.9423 H       
  51 H51           -1.6583     2.1916     1.0494 H       
  52 H52           -1.2441     2.9839    -0.4898 H       
  53 H53           -2.0869     1.4162    -0.4943 H       
@<TRIPOS>BOND
   1    1    2 ar
   2    1    6 ar
   3    1   28 1
   4    2    3 ar
   5    3    4 ar
   6    3    7 1
   7    4    5 ar
   8    4   29 1
   9    5    6 ar
  10    5   30 1
  11    7    8 2
  12    7    9 am
  13    9   10 1
  14    9   31 1
  15   10   11 1
  16   10   16 1
  17   10   17 1
  18   11   12 1
  19   11   32 1
  20   11   33 1
  21   12   13 1
  22   12   34 1
  23   12   35 1
  24   13   14 1
  25   13   36 1
  26   13   37 1
  27   14   15 1
  28   14   17 1
  29   14   18 1
  30   15   16 1
  31   15   38 1
  32   15   39 1
  33   16   40 1
  34   16   41 1
  35   17   42 1
  36   17   43 1
  37   18   19 am
  38   18   44 1
  39   19   20 2
  40   19   21 1
  41   21   22 ar
  42   21   26 ar
  43   22   23 ar
  44   22   45 1
  45   23   24 ar
  46   23   46 1
  47   24   25 ar
  48   24   47 1
  49   25   26 ar
  50   25   27 1
  51   27   48 1
  52   27   49 1
  53   27   50 1
  54   28   51 1
  55   28   52 1
  56   28   53 1

#	End of record

