#	Name: ASD00111122
#	Creating user name:	WinNT
#	Creation time:	15. 06. 2019 18:31

#	Modifying user name:	WinNT
#	Modification time:	15. 06. 2019 18:31

#	Program:	/corina/corina34_cracker 3.40 0067  02.08.2006

@<TRIPOS>MOLECULE
ASD00111122
  42   44    0    0    0
SMALL
NO_CHARGES


@<TRIPOS>ATOM
   1 N1             0.2946     1.5592     0.0550 N.am    
   2 C2             0.1644     0.1072    -0.0171 C.3     
   3 C3             0.6299    -0.5206     1.3011 C.3     
   4 C4             2.1403    -0.6048     1.2909 C.ar    
   5 C5             2.8980     0.5373     1.3940 C.ar    
   6 C6             2.2283     1.8879     1.5190 C.3     
   7 C7             1.5799     2.2404     0.1759 C.3     
   8 C8             4.2773     0.4634     1.3855 C.ar    
   9 C9             4.9013    -0.7796     1.2716 C.ar    
  10 C10            4.1270    -1.9352     1.1671 C.ar    
  11 C11            2.7500    -1.8435     1.1771 C.ar    
  12 C12            0.1723     0.3491     2.4737 C.3     
  13 N13            8.4813    -1.5035     1.6628 N.2     
  14 N14            7.1372    -1.7638     1.9589 N.pl3   
  15 C15            6.3780    -0.8714     1.2612 C.2     
  16 C16            7.2340    -0.0777     0.5502 C.2     
  17 C17            8.5356    -0.4997     0.8244 C.2     
  18 C18            6.6369    -2.8078     2.8566 C.3     
  19 Br19           6.7420     1.3401    -0.6003 Br      
  20 C20           -0.8253     2.3071     0.0018 C.2     
  21 O21           -1.9081     1.7710    -0.1035 O.2     
  22 C22           -0.7321     3.8095     0.0733 C.3     
  23 F23           -2.0160     4.3604    -0.0007 F       
  24 F24           -0.1335     4.1827     1.2814 F       
  25 F25            0.0396     4.2802    -0.9945 F       
  26 H26           -0.8786    -0.1548    -0.1950 H       
  27 H27            0.7770    -0.2715    -0.8353 H       
  28 H28            0.2086    -1.5212     1.3985 H       
  29 H29            1.4636     1.8464     2.2946 H       
  30 H30            2.9720     2.6425     1.7754 H       
  31 H31            2.2348     1.9257    -0.6366 H       
  32 H32            1.4257     3.3180     0.1195 H       
  33 H33            4.8696     1.3629     1.4662 H       
  34 H34            4.6043    -2.9000     1.0781 H       
  35 H35            2.1483    -2.7367     1.0963 H       
  36 H36           -0.7893    -0.0110     2.8395 H       
  37 H37            0.9091     0.2955     3.2751 H       
  38 H38            0.0709     1.3824     2.1418 H       
  39 H39            9.4372    -0.0697     0.4137 H       
  40 H40            6.5591    -2.4103     3.8685 H       
  41 H41            5.6541    -3.1370     2.5190 H       
  42 H42            7.3251    -3.6531     2.8501 H       
@<TRIPOS>BOND
   1    1    2 1
   2    1    7 1
   3    1   20 am
   4    2    3 1
   5    2   26 1
   6    2   27 1
   7    3    4 1
   8    3   12 1
   9    3   28 1
  10    4    5 ar
  11    4   11 ar
  12    5    6 1
  13    5    8 ar
  14    6    7 1
  15    6   29 1
  16    6   30 1
  17    7   31 1
  18    7   32 1
  19    8    9 ar
  20    8   33 1
  21    9   10 ar
  22    9   15 1
  23   10   11 ar
  24   10   34 1
  25   11   35 1
  26   12   36 1
  27   12   37 1
  28   12   38 1
  29   13   14 1
  30   13   17 2
  31   14   15 1
  32   14   18 1
  33   15   16 2
  34   16   17 1
  35   16   19 1
  36   17   39 1
  37   18   40 1
  38   18   41 1
  39   18   42 1
  40   20   21 2
  41   20   22 1
  42   22   23 1
  43   22   24 1
  44   22   25 1

#	End of record

