#	Name: ASD01810399
#	Creating user name:	WinNT
#	Creation time:	15. 06. 2019 19:24

#	Modifying user name:	WinNT
#	Modification time:	15. 06. 2019 19:24

#	Program:	/corina/corina34_cracker 3.40 0067  02.08.2006

@<TRIPOS>MOLECULE
ASD01810399
  51   54    0    0    0
SMALL
NO_CHARGES


@<TRIPOS>ATOM
   1 C1            -0.0162     1.3440     0.0094 C.2     
   2 C2             0.0021    -0.0041     0.0020 C.2     
   3 C3             1.2448    -0.6880    -0.0132 C.2     
   4 C4             2.4779     0.1132    -0.0210 C.2     
   5 C5             2.3567     1.4881    -0.0129 C.2     
   6 N6             1.1446     2.0619     0.0022 N.pl3   
   7 C7            -1.4078    -0.5544     0.0113 C.3     
   8 C8            -2.3013     0.6319    -0.4106 C.3     
   9 C9            -1.4491     1.8423     0.0321 C.3     
  10 C10            3.8003    -0.5311    -0.0364 C.2     
  11 O11            4.8077     0.1491    -0.0426 O.2     
  12 O12            3.8949    -1.8757    -0.0436 O.3     
  13 S13            1.3073    -2.3988    -0.0217 S.2     
  14 C14            1.0628     3.5246     0.0101 C.3     
  15 C15            1.0205     4.9273     4.0487 C.ar    
  16 C16            2.2307     4.7652     3.3774 C.ar    
  17 C17            2.2385     4.3123     2.0737 C.ar    
  18 C18            1.0479     4.0191     1.4336 C.ar    
  19 C19           -0.1564     4.1787     2.0950 C.ar    
  20 C20           -0.1759     4.6309     3.3989 C.ar    
  21 C21            1.0062     5.4080     5.4525 C.ar    
  22 C22           -0.2040     5.5702     6.1238 C.ar    
  23 C23           -0.2114     6.0176     7.4294 C.ar    
  24 C24            0.9795     6.3054     8.0713 C.ar    
  25 C25            2.1837     6.1467     7.4096 C.ar    
  26 C26            2.2032     5.6935     6.1061 C.ar    
  27 C27            5.2317    -2.4424    -0.0588 C.3     
  28 C28            5.1382    -3.9695    -0.0651 C.3     
  29 H29            3.2429     2.1054    -0.0183 H       
  30 H30           -1.5003    -1.3717    -0.7039 H       
  31 H31           -1.6756    -0.8934     1.0120 H       
  32 H32           -2.4598     0.6362    -1.4890 H       
  33 H33           -3.2523     0.6122     0.1216 H       
  34 H34           -1.7241     2.1580     1.0385 H       
  35 H35           -1.5746     2.6656    -0.6712 H       
  36 H36            1.9263     3.9396    -0.5097 H       
  37 H37            0.1492     3.8401    -0.4937 H       
  38 H38            3.1609     4.9938     3.8763 H       
  39 H39            3.1759     4.1863     1.5524 H       
  40 H40           -1.0832     3.9487     1.5904 H       
  41 H41           -1.1167     4.7545     3.9146 H       
  42 H42           -1.1345     5.3464     5.6232 H       
  43 H43           -1.1489     6.1437     7.9506 H       
  44 H44            0.9691     6.6556     9.0929 H       
  45 H45            3.1107     6.3731     7.9154 H       
  46 H46            3.1443     5.5650     5.5920 H       
  47 H47            5.7584    -2.1069    -0.9521 H       
  48 H48            5.7751    -2.1153     0.8277 H       
  49 H49            6.1417    -4.3949    -0.0765 H       
  50 H50            4.6115    -4.3050     0.8283 H       
  51 H51            4.5948    -4.2966    -0.9516 H       
@<TRIPOS>BOND
   1    1    2 2
   2    1    6 1
   3    1    9 1
   4    2    3 1
   5    2    7 1
   6    3    4 1
   7    3   13 2
   8    4    5 2
   9    4   10 1
  10    5    6 1
  11    5   29 1
  12    6   14 1
  13    7    8 1
  14    7   30 1
  15    7   31 1
  16    8    9 1
  17    8   32 1
  18    8   33 1
  19    9   34 1
  20    9   35 1
  21   10   11 2
  22   10   12 1
  23   12   27 1
  24   14   18 1
  25   14   36 1
  26   14   37 1
  27   15   16 ar
  28   15   20 ar
  29   15   21 1
  30   16   17 ar
  31   16   38 1
  32   17   18 ar
  33   17   39 1
  34   18   19 ar
  35   19   20 ar
  36   19   40 1
  37   20   41 1
  38   21   22 ar
  39   21   26 ar
  40   22   23 ar
  41   22   42 1
  42   23   24 ar
  43   23   43 1
  44   24   25 ar
  45   24   44 1
  46   25   26 ar
  47   25   45 1
  48   26   46 1
  49   27   28 1
  50   27   47 1
  51   27   48 1
  52   28   49 1
  53   28   50 1
  54   28   51 1

#	End of record

