#	Name: ASD01814448
#	Creating user name:	WinNT
#	Creation time:	15. 06. 2019 19:32

#	Modifying user name:	WinNT
#	Modification time:	15. 06. 2019 19:32

#	Program:	/corina/corina34_cracker 3.40 0067  02.08.2006

@<TRIPOS>MOLECULE
ASD01814448
  52   56    0    0    0
SMALL
NO_CHARGES


@<TRIPOS>ATOM
   1 C1            -0.0189     1.3742     0.1549 C.ar    
   2 C2             0.0117    -0.0079     0.2532 C.ar    
   3 C3             1.2044    -0.6963     0.1536 C.ar    
   4 C4             2.3914    -0.0002    -0.0476 C.ar    
   5 C5             2.3542     1.4040    -0.1467 C.ar    
   6 C6             1.1484     2.0841    -0.0448 C.ar    
   7 N7             3.5996    -0.6594    -0.1508 N.pl3   
   8 N8             4.7204    -0.0640    -0.3358 N.2     
   9 C9             4.8442     1.2333    -0.4473 C.2     
  10 C10            3.6395     2.0946    -0.3599 C.2     
  11 C11            5.9559     2.1636    -0.6563 C.2     
  12 N12            5.4128     3.3998    -0.6796 N.am    
  13 N13            4.0291     3.3262    -0.5002 N.2     
  14 C14            3.6020    -2.1204    -0.0426 C.3     
  15 C15            5.0125    -2.6322    -0.1822 C.ar    
  16 C16            5.8197    -2.7792     0.9353 C.ar    
  17 C17            7.1106    -3.2540     0.7591 C.ar    
  18 C18            7.5465    -3.5626    -0.5153 C.ar    
  19 N19            6.7509    -3.4097    -1.5559 N.ar    
  20 C20            5.5160    -2.9663    -1.4254 C.ar    
  21 O21            7.1352     1.8791    -0.7832 O.2     
  22 C22            6.1673     4.6416    -0.8660 C.3     
  23 C23            8.9475    -4.0793    -0.7185 C.3     
  24 C24            5.6632     5.3615    -2.1184 C.3     
  25 C25            6.4512     6.6585    -2.3131 C.3     
  26 C26            6.2572     7.5612    -1.0931 C.3     
  27 C27            6.7613     6.8412     0.1593 C.3     
  28 C28            5.9733     5.5443     0.3540 C.3     
  29 Cl29           1.2222    -2.4276     0.2798 Cl      
  30 O30            6.4441     4.8719     1.5237 O.3     
  31 H31           -0.9605     1.8979     0.2304 H       
  32 H32           -0.9076    -0.5525     0.4098 H       
  33 H33            1.1235     3.1611    -0.1209 H       
  34 H34            3.2036    -2.4134     0.9287 H       
  35 H35            2.9819    -2.5442    -0.8325 H       
  36 H36            5.4519    -2.5296     1.9196 H       
  37 H37            7.7671    -3.3806     1.6073 H       
  38 H38            4.8938    -2.8541    -2.3010 H       
  39 H39            7.2260     4.4096    -0.9816 H       
  40 H40            8.9471    -5.1671    -0.6499 H       
  41 H41            9.3070    -3.7774    -1.7022 H       
  42 H42            9.6018    -3.6671     0.0497 H       
  43 H43            5.8015     4.7184    -2.9876 H       
  44 H44            4.6045     5.5935    -2.0028 H       
  45 H45            7.5100     6.4265    -2.4287 H       
  46 H46            6.0921     7.1714    -3.2053 H       
  47 H47            6.8186     8.4851    -1.2318 H       
  48 H48            5.1985     7.7931    -0.9775 H       
  49 H49            7.8200     6.6093     0.0437 H       
  50 H50            6.6230     7.4843     1.0285 H       
  51 H51            4.9145     5.7763     0.4696 H       
  52 H52            6.3519     5.3866     2.3372 H       
@<TRIPOS>BOND
   1    1    2 ar
   2    1    6 ar
   3    1   31 1
   4    2    3 ar
   5    2   32 1
   6    3    4 ar
   7    3   29 1
   8    4    5 ar
   9    4    7 1
  10    5    6 ar
  11    5   10 1
  12    6   33 1
  13    7    8 1
  14    7   14 1
  15    8    9 2
  16    9   10 1
  17    9   11 1
  18   10   13 2
  19   11   12 am
  20   11   21 2
  21   12   13 1
  22   12   22 1
  23   14   15 1
  24   14   34 1
  25   14   35 1
  26   15   16 ar
  27   15   20 ar
  28   16   17 ar
  29   16   36 1
  30   17   18 ar
  31   17   37 1
  32   18   19 ar
  33   18   23 1
  34   19   20 ar
  35   20   38 1
  36   22   24 1
  37   22   28 1
  38   22   39 1
  39   23   40 1
  40   23   41 1
  41   23   42 1
  42   24   25 1
  43   24   43 1
  44   24   44 1
  45   25   26 1
  46   25   45 1
  47   25   46 1
  48   26   27 1
  49   26   47 1
  50   26   48 1
  51   27   28 1
  52   27   49 1
  53   27   50 1
  54   28   30 1
  55   28   51 1
  56   30   52 1

#	End of record

