#	Name: ASD01810288
#	Creating user name:	WinNT
#	Creation time:	15. 06. 2019 19:24

#	Modifying user name:	WinNT
#	Modification time:	15. 06. 2019 19:24

#	Program:	/corina/corina34_cracker 3.40 0067  02.08.2006

@<TRIPOS>MOLECULE
ASD01810288
  42   45    0    0    0
SMALL
NO_CHARGES


@<TRIPOS>ATOM
   1 C1             1.1601     2.2504    -0.5160 C.ar    
   2 C2             0.7831     0.9163    -0.5005 C.ar    
   3 C3             1.7245    -0.0811    -0.3477 C.ar    
   4 C4             3.0715     0.2477    -0.2073 C.ar    
   5 C5             3.4523     1.6004    -0.2236 C.ar    
   6 C6             2.4885     2.6000    -0.3786 C.ar    
   7 N7             4.0214    -0.7402    -0.0534 N.pl3   
   8 C8             5.3266    -0.4759     0.0860 C.2     
   9 C9             5.8200     0.8132     0.0854 C.2     
  10 C10            4.8797     1.9346    -0.0742 C.2     
  11 O11            5.2654     3.0906    -0.0812 O.2     
  12 C12            3.5837    -2.1382    -0.0416 C.3     
  13 C13            3.4399    -2.6316    -1.4583 C.ar    
  14 C14            4.5229    -2.5802    -2.3204 C.ar    
  15 C15            4.3951    -3.0319    -3.6210 C.ar    
  16 C16            3.1750    -3.5386    -4.0621 C.ar    
  17 C17            2.0895    -3.5874    -3.1896 C.ar    
  18 C18            2.2286    -3.1394    -1.8917 C.ar    
  19 C19            3.0314    -4.0245    -5.4570 C.ar    
  20 C20            7.2599     1.0620     0.2416 C.2     
  21 O21            7.7297     2.3256     0.2395 O.3     
  22 O22            8.0274     0.1284     0.3727 O.2     
  23 F23            5.7051    -2.0878    -1.8902 F       
  24 F24            2.8544     3.9004    -0.3948 F       
  25 F25            1.3403    -1.3763    -0.3339 F       
  26 C26            1.8156    -4.5360    -5.9172 C.ar    
  27 N27            1.7309    -4.9577    -7.1673 N.ar    
  28 C28            2.7719    -4.9003    -7.9740 C.ar    
  29 N29            3.9368    -4.4256    -7.5798 N.ar    
  30 C30            4.1066    -3.9776    -6.3477 C.ar    
  31 H31            0.4119     3.0193    -0.6405 H       
  32 H32           -0.2592     0.6548    -0.6089 H       
  33 H33            6.0162    -1.2988     0.2031 H       
  34 H34            4.3222    -2.7457     0.4815 H       
  35 H35            2.6235    -2.2140     0.4688 H       
  36 H36            5.2393    -2.9916    -4.2933 H       
  37 H37            1.1415    -3.9792    -3.5275 H       
  38 H38            1.3875    -3.1776    -1.2154 H       
  39 H39            8.6842     2.4393     0.3453 H       
  40 H40            0.9585    -4.5865    -5.2621 H       
  41 H41            2.6673    -5.2536    -8.9892 H       
  42 H42            5.0638    -3.5897    -6.0321 H       
@<TRIPOS>BOND
   1    1    2 ar
   2    1    6 ar
   3    1   31 1
   4    2    3 ar
   5    2   32 1
   6    3    4 ar
   7    3   25 1
   8    4    5 ar
   9    4    7 1
  10    5    6 ar
  11    5   10 1
  12    6   24 1
  13    7    8 1
  14    7   12 1
  15    8    9 2
  16    8   33 1
  17    9   10 1
  18    9   20 1
  19   10   11 2
  20   12   13 1
  21   12   34 1
  22   12   35 1
  23   13   14 ar
  24   13   18 ar
  25   14   15 ar
  26   14   23 1
  27   15   16 ar
  28   15   36 1
  29   16   17 ar
  30   16   19 1
  31   17   18 ar
  32   17   37 1
  33   18   38 1
  34   19   26 ar
  35   19   30 ar
  36   20   21 1
  37   20   22 2
  38   21   39 1
  39   26   27 ar
  40   26   40 1
  41   27   28 ar
  42   28   29 ar
  43   28   41 1
  44   29   30 ar
  45   30   42 1

#	End of record

