#	Name: ASD05730051
#	Creating user name:	WinNT
#	Creation time:	15. 06. 2019 21:02

#	Modifying user name:	WinNT
#	Modification time:	15. 06. 2019 21:02

#	Program:	/corina/corina34_cracker 3.40 0067  02.08.2006

@<TRIPOS>MOLECULE
ASD05730051
  76   82    0    0    0
SMALL
NO_CHARGES


@<TRIPOS>ATOM
   1 N1            -0.4284     1.9252    -0.0663 N.pl3   
   2 C2            -0.3393     0.5287    -0.0648 C.ar    
   3 C3             0.7531    -0.0969     0.5217 C.ar    
   4 C4             0.8407    -1.4748     0.5235 C.ar    
   5 C5            -0.1635    -2.2352    -0.0611 C.ar    
   6 C6            -1.2559    -1.6097    -0.6476 C.ar    
   7 C7            -1.3462    -0.2319    -0.6448 C.ar    
   8 N8            -0.0744    -3.6330    -0.0596 N.pl3   
   9 C9            -1.2160    -4.3975     0.0789 C.ar    
  10 N10           -1.0968    -5.7145     0.1512 N.ar    
  11 C11           -2.1715    -6.4833     0.2846 C.ar    
  12 C12           -3.4408    -5.8683     0.3476 C.ar    
  13 C13           -3.5141    -4.4691     0.2665 C.ar    
  14 N14           -2.3933    -3.7843     0.1401 N.ar    
  15 N15           -2.0554    -7.8505     0.3598 N.am    
  16 C16           -3.1461    -8.6287     0.4946 C.2     
  17 C17           -4.4793    -8.0277     0.5636 C.2     
  18 C18           -4.6059    -6.6549     0.4898 C.2     
  19 C19           -0.7955    -8.4379     0.2953 C.2     
  20 O20           -3.0229    -9.8389     0.5591 O.2     
  21 C21           -5.6787    -8.8828     0.7120 C.ar    
  22 C22            0.5591     2.7229     0.6650 C.3     
  23 C23            1.3867     3.5464    -0.3258 C.3     
  24 C24            2.3748     4.4228     0.4472 C.3     
  25 N25            1.6372     5.3117     1.3540 N.3     
  26 C26            0.8722     4.5436     2.3446 C.3     
  27 C27           -0.1608     3.6708     1.6282 C.3     
  28 S28           -0.4935   -10.1189     0.3750 S.3     
  29 N29           -5.9113    -9.8495    -0.1677 N.ar    
  30 C30           -1.5056     2.5897    -0.8041 C.3     
  31 N31            0.3194    -7.7907     0.1605 N.2     
  32 C32            1.4255    -8.5080     0.1174 C.2     
  33 C33            1.2366    -9.8260     0.2186 C.2     
  34 C34           -6.5527    -8.6701     1.7784 C.ar    
  35 C35           -7.6689    -9.4773     1.9034 C.ar    
  36 C36           -7.8768   -10.4726     0.9579 C.ar    
  37 C37           -6.9673   -10.6319    -0.0706 C.ar    
  38 C38           -6.2841    -7.5768     2.7802 C.3     
  39 S39           -9.2831   -11.5279     1.0725 S.o2    
  40 C40          -10.5691   -10.6733     0.1203 C.3     
  41 O41           -8.8818   -12.7197     0.4108 O.2     
  42 O42           -9.6067   -11.5316     2.4561 O.2     
  43 C43          -11.9719   -11.2840     0.1210 C.3     
  44 C44          -11.6969    -9.9984     0.9035 C.3     
  45 H45            1.5343     0.4945     0.9760 H       
  46 H46            1.6904    -1.9612     0.9793 H       
  47 H47           -2.0369    -2.2011    -1.1022 H       
  48 H48           -2.1957     0.2545    -1.1009 H       
  49 H49            0.7892    -4.0640    -0.1558 H       
  50 H50           -4.4673    -3.9633     0.3111 H       
  51 H51           -5.5796    -6.1901     0.5386 H       
  52 H52            1.2174     2.0611     1.2277 H       
  53 H53            1.9352     2.8759    -0.9873 H       
  54 H54            0.7238     4.1790    -0.9161 H       
  55 H55            3.0462     3.7890     1.0265 H       
  56 H56            2.9558     5.0210    -0.2547 H       
  57 H57            2.2596     5.9652     1.8053 H       
  58 H58            1.5507     3.9092     2.9150 H       
  59 H59            0.3619     5.2295     3.0207 H       
  60 H60           -0.8480     4.3054     1.0686 H       
  61 H61           -0.7178     3.0892     2.3627 H       
  62 H62           -2.3685     2.7174    -0.1505 H       
  63 H63           -1.1624     3.5656    -1.1476 H       
  64 H64           -1.7872     1.9806    -1.6630 H       
  65 H65            2.4044    -8.0653     0.0074 H       
  66 H66            2.0092   -10.5805     0.2049 H       
  67 H67           -8.3632    -9.3367     2.7187 H       
  68 H68           -7.1267   -11.4053    -0.8074 H       
  69 H69           -6.6813    -6.6339     2.4042 H       
  70 H70           -6.7674    -7.8234     3.7255 H       
  71 H71           -5.2094    -7.4821     2.9354 H       
  72 H72          -10.2318   -10.1884    -0.7957 H       
  73 H73          -12.5576   -11.2005    -0.7945 H       
  74 H74          -12.1221   -12.1993     0.6935 H       
  75 H75          -11.6662   -10.0678     1.9908 H       
  76 H76          -12.1017    -9.0690     0.5028 H       
@<TRIPOS>BOND
   1    1    2 1
   2    1   30 1
   3    1   22 1
   4    2    3 ar
   5    2    7 ar
   6    3    4 ar
   7    3   45 1
   8    4    5 ar
   9    4   46 1
  10    5    6 ar
  11    5    8 1
  12    6    7 ar
  13    6   47 1
  14    7   48 1
  15    8    9 1
  16    8   49 1
  17    9   10 ar
  18    9   14 ar
  19   10   11 ar
  20   11   12 ar
  21   11   15 1
  22   12   13 ar
  23   12   18 1
  24   13   14 ar
  25   13   50 1
  26   15   16 am
  27   15   19 1
  28   16   17 1
  29   16   20 2
  30   17   18 2
  31   17   21 1
  32   18   51 1
  33   19   28 1
  34   19   31 2
  35   21   29 ar
  36   21   34 ar
  37   22   23 1
  38   22   27 1
  39   22   52 1
  40   23   24 1
  41   23   53 1
  42   23   54 1
  43   24   25 1
  44   24   55 1
  45   24   56 1
  46   25   26 1
  47   25   57 1
  48   26   27 1
  49   26   58 1
  50   26   59 1
  51   27   60 1
  52   27   61 1
  53   28   33 1
  54   29   37 ar
  55   30   62 1
  56   30   63 1
  57   30   64 1
  58   31   32 1
  59   32   33 2
  60   32   65 1
  61   33   66 1
  62   34   35 ar
  63   34   38 1
  64   35   36 ar
  65   35   67 1
  66   36   37 ar
  67   36   39 1
  68   37   68 1
  69   38   69 1
  70   38   70 1
  71   38   71 1
  72   39   40 1
  73   39   41 2
  74   39   42 2
  75   40   43 1
  76   40   44 1
  77   40   72 1
  78   43   44 1
  79   43   73 1
  80   43   74 1
  81   44   75 1
  82   44   76 1

#	End of record

