#	Name: ASD03331254
#	Creating user name:	WinNT
#	Creation time:	15. 06. 2019 20:38

#	Modifying user name:	WinNT
#	Modification time:	15. 06. 2019 20:38

#	Program:	/corina/corina34_cracker 3.40 0067  02.08.2006

@<TRIPOS>MOLECULE
ASD03331254
  54   57    0    0    0
SMALL
NO_CHARGES


@<TRIPOS>ATOM
   1 N1            -0.1942     1.4008     0.4786 N.am    
   2 C2            -0.0917     0.0705     1.0976 C.3     
   3 C3             0.5134    -0.8970     0.0748 C.3     
   4 N4             1.7795    -0.3459    -0.4264 N.3     
   5 C5             1.5643     0.9200    -1.1400 C.3     
   6 C6             1.0023     1.9619    -0.1670 C.3     
   7 C7            -1.3552     2.0850     0.4977 C.2     
   8 O8            -2.3600     1.5652     0.9432 O.2     
   9 N9            -1.4024     3.3455     0.0229 N.am    
  10 C10           -2.6323     4.0021    -0.0978 C.ar    
  11 C11           -2.7101     5.3750     0.0963 C.ar    
  12 C12           -3.9253     6.0202    -0.0240 C.ar    
  13 C13           -5.0638     5.3006    -0.3373 C.ar    
  14 C14           -4.9897     3.9334    -0.5312 C.ar    
  15 C15           -3.7765     3.2831    -0.4175 C.ar    
  16 C16            2.4765    -1.3186    -1.2783 C.3     
  17 C17            3.6346    -0.6440    -1.9674 C.ar    
  18 C18            4.8797    -0.6254    -1.3669 C.ar    
  19 C19            5.9446    -0.0071    -1.9965 C.ar    
  20 C20            5.7663     0.5940    -3.2272 C.ar    
  21 C21            4.5175     0.5767    -3.8321 C.ar    
  22 C22            3.4523    -0.0495    -3.2011 C.ar    
  23 O23            4.3395     1.1674    -5.0429 O.3     
  24 C24            5.4340     1.6616    -5.6786 C.ar    
  25 C25            6.3139     0.8004    -6.3185 C.ar    
  26 C26            5.6704     3.0287    -5.6939 C.ar    
  27 C27            6.7839     3.5294    -6.3408 C.ar    
  28 C28            7.6624     2.6698    -6.9733 C.ar    
  29 C29            7.4266     1.3059    -6.9644 C.ar    
  30 Cl30           8.5322     0.2291    -7.7593 Cl      
  31 H31            0.5514     0.1239     1.9761 H       
  32 H32           -1.0837    -0.2761     1.3871 H       
  33 H33            0.6989    -1.8600     0.5505 H       
  34 H34           -0.1800    -1.0287    -0.7558 H       
  35 H35            2.5119     1.2747    -1.5453 H       
  36 H36            0.8562     0.7630    -1.9537 H       
  37 H37            0.7335     2.8659    -0.7136 H       
  38 H38            1.7505     2.1972     0.5899 H       
  39 H39           -0.5839     3.7975    -0.2352 H       
  40 H40           -1.8213     5.9375     0.3414 H       
  41 H41           -3.9865     7.0878     0.1272 H       
  42 H42           -6.0130     5.8073    -0.4304 H       
  43 H43           -5.8806     3.3742    -0.7758 H       
  44 H44           -3.7184     2.2160    -0.5735 H       
  45 H45            2.8472    -2.1394    -0.6644 H       
  46 H46            1.7854    -1.7076    -2.0261 H       
  47 H47            5.0210    -1.0942    -0.4043 H       
  48 H48            6.9163     0.0060    -1.5253 H       
  49 H49            6.5981     1.0773    -3.7181 H       
  50 H50            2.4795    -0.0646    -3.6699 H       
  51 H51            6.1298    -0.2638    -6.3115 H       
  52 H52            4.9843     3.7012    -5.2006 H       
  53 H53            6.9679     4.5935    -6.3526 H       
  54 H54            8.5319     3.0633    -7.4787 H       
@<TRIPOS>BOND
   1    1    2 1
   2    1    6 1
   3    1    7 am
   4    2    3 1
   5    2   31 1
   6    2   32 1
   7    3    4 1
   8    3   33 1
   9    3   34 1
  10    4    5 1
  11    4   16 1
  12    5    6 1
  13    5   35 1
  14    5   36 1
  15    6   37 1
  16    6   38 1
  17    7    8 2
  18    7    9 am
  19    9   10 1
  20    9   39 1
  21   10   11 ar
  22   10   15 ar
  23   11   12 ar
  24   11   40 1
  25   12   13 ar
  26   12   41 1
  27   13   14 ar
  28   13   42 1
  29   14   15 ar
  30   14   43 1
  31   15   44 1
  32   16   17 1
  33   16   45 1
  34   16   46 1
  35   17   18 ar
  36   17   22 ar
  37   18   19 ar
  38   18   47 1
  39   19   20 ar
  40   19   48 1
  41   20   21 ar
  42   20   49 1
  43   21   22 ar
  44   21   23 1
  45   22   50 1
  46   23   24 1
  47   24   25 ar
  48   24   26 ar
  49   25   29 ar
  50   25   51 1
  51   26   27 ar
  52   26   52 1
  53   27   28 ar
  54   27   53 1
  55   28   29 ar
  56   28   54 1
  57   29   30 1

#	End of record

