#	Name: ASD01884506
#	Creating user name:	WinNT
#	Creation time:	15. 06. 2019 19:48

#	Modifying user name:	WinNT
#	Modification time:	15. 06. 2019 19:48

#	Program:	/corina/corina34_cracker 3.40 0067  02.08.2006

@<TRIPOS>MOLECULE
ASD01884506
  50   53    0    0    0
SMALL
NO_CHARGES


@<TRIPOS>ATOM
   1 C1            -0.0168     1.3884     0.0097 C.2     
   2 C2             0.0021    -0.0041     0.0020 C.2     
   3 C3            -1.2095    -0.6965     0.0104 C.2     
   4 C4            -2.3831    -0.0157     0.0252 C.2     
   5 N5            -2.4093     1.3392     0.0327 N.am    
   6 C6            -1.2693     2.0558     0.0312 C.2     
   7 O7            -1.3129     3.2741     0.0380 O.2     
   8 C8            -3.6983     2.0352     0.0483 C.3     
   9 C9             1.2059     2.1337     0.0020 C.1     
  10 N10            2.1759     2.7249    -0.0041 N.1     
  11 N11            1.6901    -1.1066     1.3585 N.3     
  12 C12            2.8290    -2.0352     1.3670 C.3     
  13 C13            3.2431    -2.3172     2.8131 C.3     
  14 N14            2.1012    -2.8822     3.5456 N.3     
  15 C15            0.9623    -1.9536     3.5371 C.3     
  16 C16            0.5482    -1.6716     2.0910 C.3     
  17 C17           -4.1338     2.2698     1.4962 C.3     
  18 C18            1.3105    -0.7515    -0.0155 C.3     
  19 C19           -5.4044     3.0902     1.7276 C.3     
  20 C20           -5.4146     1.5794     1.9693 C.3     
  21 C21            2.4621    -3.2198     4.8520 C.ar    
  22 C22            1.5222    -3.7716     5.7133 C.ar    
  23 C23            1.8825    -4.1047     7.0042 C.ar    
  24 C24            3.1772    -3.8895     7.4398 C.ar    
  25 C25            4.1154    -3.3404     6.5850 C.ar    
  26 C26            3.7632    -3.0099     5.2911 C.ar    
  27 H27           -1.2130    -1.7765     0.0046 H       
  28 H28           -3.3137    -0.5638     0.0308 H       
  29 H29           -3.5999     2.9937    -0.4613 H       
  30 H30           -4.4456     1.4275    -0.4619 H       
  31 H31            2.5411    -2.9683     0.8826 H       
  32 H32            3.6659    -1.5892     0.8295 H       
  33 H33            4.0692    -3.0283     2.8228 H       
  34 H34            3.5569    -1.3883     3.2893 H       
  35 H35            0.1254    -2.3996     4.0746 H       
  36 H36            1.2502    -1.0205     4.0215 H       
  37 H37           -0.2779    -0.9605     2.0813 H       
  38 H38            0.2344    -2.6005     1.6148 H       
  39 H39           -3.3249     2.3801     2.2184 H       
  40 H40            1.2023    -1.6595    -0.6087 H       
  41 H41            2.0835    -0.1207    -0.4544 H       
  42 H42           -5.4315     3.7400     2.6023 H       
  43 H43           -5.9300     3.4628     0.8484 H       
  44 H44           -5.9470     0.9581     1.2491 H       
  45 H45           -5.4485     1.2353     3.0030 H       
  46 H46            0.5108    -3.9395     5.3739 H       
  47 H47            1.1522    -4.5334     7.6745 H       
  48 H48            3.4563    -4.1506     8.4499 H       
  49 H49            5.1257    -3.1737     6.9283 H       
  50 H50            4.4964    -2.5814     4.6239 H       
@<TRIPOS>BOND
   1    1    2 2
   2    1    9 1
   3    1    6 1
   4    2    3 1
   5    2   18 1
   6    3    4 2
   7    3   27 1
   8    4    5 1
   9    4   28 1
  10    5    6 am
  11    5    8 1
  12    6    7 2
  13    8   17 1
  14    8   29 1
  15    8   30 1
  16    9   10 3
  17   11   12 1
  18   11   16 1
  19   11   18 1
  20   12   13 1
  21   12   31 1
  22   12   32 1
  23   13   14 1
  24   13   33 1
  25   13   34 1
  26   14   15 1
  27   14   21 1
  28   15   16 1
  29   15   35 1
  30   15   36 1
  31   16   37 1
  32   16   38 1
  33   17   19 1
  34   17   20 1
  35   17   39 1
  36   18   40 1
  37   18   41 1
  38   19   20 1
  39   19   42 1
  40   19   43 1
  41   20   44 1
  42   20   45 1
  43   21   22 ar
  44   21   26 ar
  45   22   23 ar
  46   22   46 1
  47   23   24 ar
  48   23   47 1
  49   24   25 ar
  50   24   48 1
  51   25   26 ar
  52   25   49 1
  53   26   50 1

#	End of record

