#	Name: ASD01883669
#	Creating user name:	WinNT
#	Creation time:	15. 06. 2019 19:46

#	Modifying user name:	WinNT
#	Modification time:	15. 06. 2019 19:46

#	Program:	/corina/corina34_cracker 3.40 0067  02.08.2006

@<TRIPOS>MOLECULE
ASD01883669
  48   51    0    0    0
SMALL
NO_CHARGES


@<TRIPOS>ATOM
   1 C1            -0.4070     0.7384    -1.1126 C.2     
   2 C2             0.0021    -0.0041     0.0020 C.2     
   3 C3            -0.8269    -0.0436     1.1386 C.2     
   4 C4            -1.9990     0.6181     1.1664 C.2     
   5 N5            -2.4375     1.3532     0.1042 N.pl3   
   6 C6            -1.6865     1.4486    -1.0386 C.2     
   7 C7            -3.5720     2.0989    -0.1027 C.2     
   8 C8            -3.4873     2.6148    -1.3454 C.2     
   9 N9            -2.3371     2.2111    -1.8983 N.2     
  10 N10            1.2030    -0.6889    -0.0141 N.pl3   
  11 C11            1.2305    -2.1543     0.0880 C.3     
  12 C12            2.1618    -2.5511     1.2378 C.3     
  13 C13            3.5346    -1.9102     1.0215 C.3     
  14 C14            3.3932    -0.3864     1.0183 C.3     
  15 C15            2.4756     0.0345    -0.1397 C.3     
  16 C16           -4.7001     2.3019     0.8756 C.3     
  17 C17           -5.8074     1.2838     0.5957 C.3     
  18 F18           -5.2964    -0.0111     0.7354 F       
  19 F19           -6.8547     1.4723     1.5039 F       
  20 F20           -6.2834     1.4592    -0.7080 F       
  21 C21            4.4635    -2.3260     2.1329 C.ar    
  22 C22            4.1535    -2.0172     3.4464 C.ar    
  23 C23            5.0081    -2.3999     4.4667 C.ar    
  24 C24            6.1690    -3.0892     4.1728 C.ar    
  25 C25            6.4775    -3.3970     2.8606 C.ar    
  26 C26            5.6225    -3.0206     1.8419 C.ar    
  27 O27            4.0691    -2.3414    -0.2317 O.3     
  28 F28            3.0184    -1.3428     3.7325 F       
  29 C29            0.4055     0.8066    -2.2898 C.1     
  30 N30            1.0500     0.8606    -3.2237 N.1     
  31 H31           -0.5180    -0.6142     2.0020 H       
  32 H32           -2.6099     0.5652     2.0554 H       
  33 H33           -4.2232     3.2506    -1.8152 H       
  34 H34            0.2253    -2.5257     0.2872 H       
  35 H35            1.6008    -2.5787    -0.8452 H       
  36 H36            1.7426    -2.2033     2.1820 H       
  37 H37            2.2666    -3.6358     1.2634 H       
  38 H38            2.9625    -0.0590     1.9645 H       
  39 H39            4.3745     0.0697     0.8875 H       
  40 H40            2.9498    -0.2117    -1.0897 H       
  41 H41            2.2912     1.1076    -0.0883 H       
  42 H42           -4.3292     2.1653     1.8914 H       
  43 H43           -5.0982     3.3108     0.7668 H       
  44 H44            4.7675    -2.1593     5.4916 H       
  45 H45            6.8358    -3.3874     4.9683 H       
  46 H46            7.3853    -3.9355     2.6318 H       
  47 H47            5.8645    -3.2616     0.8173 H       
  48 H48            4.9399    -1.9736    -0.4353 H       
@<TRIPOS>BOND
   1    1    2 2
   2    1   29 1
   3    1    6 1
   4    2    3 1
   5    2   10 1
   6    3    4 2
   7    3   31 1
   8    4    5 1
   9    4   32 1
  10    5    6 1
  11    5    7 1
  12    6    9 2
  13    7    8 2
  14    7   16 1
  15    8    9 1
  16    8   33 1
  17   10   11 1
  18   10   15 1
  19   11   12 1
  20   11   34 1
  21   11   35 1
  22   12   13 1
  23   12   36 1
  24   12   37 1
  25   13   14 1
  26   13   21 1
  27   13   27 1
  28   14   15 1
  29   14   38 1
  30   14   39 1
  31   15   40 1
  32   15   41 1
  33   16   17 1
  34   16   42 1
  35   16   43 1
  36   17   18 1
  37   17   19 1
  38   17   20 1
  39   21   22 ar
  40   21   26 ar
  41   22   23 ar
  42   22   28 1
  43   23   24 ar
  44   23   44 1
  45   24   25 ar
  46   24   45 1
  47   25   26 ar
  48   25   46 1
  49   26   47 1
  50   27   48 1
  51   29   30 3

#	End of record

