#	Name: ASD02190012
#	Creating user name:	WinNT
#	Creation time:	15. 06. 2019 20:18

#	Modifying user name:	WinNT
#	Modification time:	15. 06. 2019 20:18

#	Program:	/corina/corina34_cracker 3.40 0067  02.08.2006

@<TRIPOS>MOLECULE
ASD02190012
  49   51    0    0    0
SMALL
NO_CHARGES


@<TRIPOS>ATOM
   1 C1            -0.0365     1.5285     0.0052 C.3     
   2 C2             2.0148     2.3725     1.1844 C.ar    
   3 N3             3.2458     2.8571     1.1475 N.ar    
   4 C4             3.8607     3.0712    -0.0120 C.ar    
   5 N5             3.2677     2.8088    -1.1724 N.ar    
   6 C6             2.0328     2.3209    -1.2050 C.ar    
   7 C7             1.3654     2.0815    -0.0009 C.ar    
   8 N8             1.4163     2.0486    -2.4167 N.pl3   
   9 C9             2.0451     2.3985    -3.6151 C.ar    
  10 C10            1.8668     1.6163    -4.7490 C.ar    
  11 C11            2.4891     1.9652    -5.9315 C.ar    
  12 C12            3.2890     3.0919    -5.9875 C.ar    
  13 C13            3.4690     3.8726    -4.8603 C.ar    
  14 C14            2.8450     3.5325    -3.6761 C.ar    
  15 C15            3.9665     3.4695    -7.2796 C.3     
  16 C16            5.2307     3.6122    -0.0105 C.2     
  17 C17            5.9445     3.9213     1.0928 C.2     
  18 C18            0.0176     0.0227     0.0335 C.2     
  19 C19           -0.6119    -0.6378     0.9734 C.2     
  20 C20            7.2060     4.4127     0.8450 C.2     
  21 C21            7.5317     4.5087    -0.4562 C.2     
  22 S22            6.1906     3.9474    -1.4455 S.3     
  23 C23            1.3302     2.1343     2.5056 C.3     
  24 O24            8.7173     4.9653    -0.9333 O.3     
  25 C25            8.8779     4.9930    -2.3530 C.3     
  26 C26            3.0637     4.3785    -8.0731 C.2     
  27 O27            1.9813     4.6880    -7.6345 O.2     
  28 O28            3.4622     4.8444    -9.2672 O.3     
  29 H29           -0.5657     1.8897     0.8870 H       
  30 H30           -0.5603     1.8565    -0.8926 H       
  31 H31            0.5487     1.6151    -2.4328 H       
  32 H32            1.2425     0.7361    -4.7059 H       
  33 H33            2.3512     1.3572    -6.8134 H       
  34 H34            4.0946     4.7516    -4.9073 H       
  35 H35            2.9860     4.1427    -2.7962 H       
  36 H36            4.9016     3.9855    -7.0622 H       
  37 H37            4.1743     2.5690    -7.8575 H       
  38 H38            5.5557     3.7933     2.0922 H       
  39 H39            0.5754    -0.5118    -0.7212 H       
  40 H40           -1.1697    -0.1032     1.7280 H       
  41 H41           -0.5732    -1.7169     0.9937 H       
  42 H42            7.8830     4.6999     1.6359 H       
  43 H43            0.7881     3.0326     2.8011 H       
  44 H44            0.6311     1.3037     2.4080 H       
  45 H45            2.0761     1.8942     3.2633 H       
  46 H46            8.7714     3.9837    -2.7504 H       
  47 H47            8.1174     5.6386    -2.7921 H       
  48 H48            9.8675     5.3779    -2.5992 H       
  49 H49            2.8489     5.4243    -9.7391 H       
@<TRIPOS>BOND
   1    1   18 1
   2    1    7 1
   3    1   29 1
   4    1   30 1
   5    2    3 ar
   6    2   23 1
   7    2    7 ar
   8    3    4 ar
   9    4    5 ar
  10    4   16 1
  11    5    6 ar
  12    6    7 ar
  13    6    8 1
  14    8    9 1
  15    8   31 1
  16    9   10 ar
  17    9   14 ar
  18   10   11 ar
  19   10   32 1
  20   11   12 ar
  21   11   33 1
  22   12   13 ar
  23   12   15 1
  24   13   14 ar
  25   13   34 1
  26   14   35 1
  27   15   26 1
  28   15   36 1
  29   15   37 1
  30   16   17 2
  31   16   22 1
  32   17   20 1
  33   17   38 1
  34   18   19 2
  35   18   39 1
  36   19   40 1
  37   19   41 1
  38   20   21 2
  39   20   42 1
  40   21   22 1
  41   21   24 1
  42   23   43 1
  43   23   44 1
  44   23   45 1
  45   24   25 1
  46   25   46 1
  47   25   47 1
  48   25   48 1
  49   26   27 2
  50   26   28 1
  51   28   49 1

#	End of record

