#	Name: ASD01816851
#	Creating user name:	WinNT
#	Creation time:	15. 06. 2019 19:36

#	Modifying user name:	WinNT
#	Modification time:	15. 06. 2019 19:36

#	Program:	/corina/corina34_cracker 3.40 0067  02.08.2006

@<TRIPOS>MOLECULE
ASD01816851
  52   55    0    0    0
SMALL
NO_CHARGES


@<TRIPOS>ATOM
   1 C1            -0.0168     1.3897     0.0097 C.ar    
   2 C2             0.0021    -0.0041     0.0020 C.ar    
   3 C3             1.1796    -0.6877    -0.0129 C.ar    
   4 C4             2.3927     0.0187    -0.0207 C.ar    
   5 C5             2.3768     1.4381    -0.0130 C.ar    
   6 C6             1.1385     2.1078     0.0025 C.ar    
   7 C7             3.6297    -0.6529    -0.0357 C.ar    
   8 C8             4.7711     0.0956    -0.0422 C.ar    
   9 C9             4.6871     1.4959    -0.0340 C.ar    
  10 N10            3.5238     2.1168    -0.0199 N.ar    
  11 C11            5.9353     2.2963    -0.0412 C.2     
  12 N12            5.8725     3.6426    -0.0335 N.am    
  13 O13            7.0146     1.7386    -0.0541 O.2     
  14 C14            7.1057     4.4335    -0.0406 C.3     
  15 C15            6.8364     5.8081     0.5793 C.3     
  16 O16            6.4575     5.6488     1.9479 O.3     
  17 C17            3.6922    -2.1586    -0.0438 C.3     
  18 C18            3.6025    -2.6727     1.3699 C.ar    
  19 C19            2.4526    -2.4821     2.1103 C.ar    
  20 C20            4.6728    -3.3479     1.9399 C.ar    
  21 C21            4.5486    -3.8034     3.2411 C.ar    
  22 C22            3.3644    -3.5708     3.9283 C.ar    
  23 N23            2.3641    -2.9278     3.3489 N.ar    
  24 O24            3.2300    -4.0126     5.2040 O.3     
  25 F25            2.6249    -2.6656    -0.7929 F       
  26 C26            1.9879    -3.7421     5.8568 C.3     
  27 C27            8.1091     6.6549     0.4960 C.3     
  28 O28            8.5184     6.7643    -0.8688 O.3     
  29 C29            8.8293     5.5139    -1.4867 C.3     
  30 C30            7.5856     4.6212    -1.4831 C.3     
  31 H31           -0.9643     1.9080     0.0170 H       
  32 H32           -0.9302    -0.5493     0.0084 H       
  33 H33            1.1803    -1.7677    -0.0184 H       
  34 H34            1.1059     3.1873     0.0090 H       
  35 H35            5.7363    -0.3889    -0.0533 H       
  36 H36            5.0108     4.0879    -0.0231 H       
  37 H37            7.8732     3.9174     0.5362 H       
  38 H38            6.0325     6.3025     0.0339 H       
  39 H39            6.2715     6.4810     2.4039 H       
  40 H40            4.6337    -2.4808    -0.4886 H       
  41 H41            1.6152    -1.9612     1.6699 H       
  42 H42            5.5817    -3.5144     1.3808 H       
  43 H43            5.3616    -4.3328     3.7155 H       
  44 H44            2.0129    -4.1479     6.8681 H       
  45 H45            1.8280    -2.6648     5.9015 H       
  46 H46            1.1753    -4.2071     5.2987 H       
  47 H47            7.9112     7.6490     0.8970 H       
  48 H48            8.9004     6.1798     1.0758 H       
  49 H49            9.1503     5.6860    -2.5141 H       
  50 H50            9.6301     5.0239    -0.9328 H       
  51 H51            7.8324     3.6510    -1.9141 H       
  52 H52            6.7976     5.0921    -2.0708 H       
@<TRIPOS>BOND
   1    1    2 ar
   2    1    6 ar
   3    1   31 1
   4    2    3 ar
   5    2   32 1
   6    3    4 ar
   7    3   33 1
   8    4    5 ar
   9    4    7 ar
  10    5    6 ar
  11    5   10 ar
  12    6   34 1
  13    7    8 ar
  14    7   17 1
  15    8    9 ar
  16    8   35 1
  17    9   10 ar
  18    9   11 1
  19   11   12 am
  20   11   13 2
  21   12   14 1
  22   12   36 1
  23   14   15 1
  24   14   30 1
  25   14   37 1
  26   15   16 1
  27   15   27 1
  28   15   38 1
  29   16   39 1
  30   17   18 1
  31   17   25 1
  32   17   40 1
  33   18   19 ar
  34   18   20 ar
  35   19   23 ar
  36   19   41 1
  37   20   21 ar
  38   20   42 1
  39   21   22 ar
  40   21   43 1
  41   22   23 ar
  42   22   24 1
  43   24   26 1
  44   26   44 1
  45   26   45 1
  46   26   46 1
  47   27   28 1
  48   27   47 1
  49   27   48 1
  50   28   29 1
  51   29   30 1
  52   29   49 1
  53   29   50 1
  54   30   51 1
  55   30   52 1

#	End of record

