#	Name: ASD01885635
#	Creating user name:	WinNT
#	Creation time:	15. 06. 2019 19:49

#	Modifying user name:	WinNT
#	Modification time:	15. 06. 2019 19:49

#	Program:	/corina/corina34_cracker 3.40 0067  02.08.2006

@<TRIPOS>MOLECULE
ASD01885635
  35   37    0    0    0
SMALL
NO_CHARGES


@<TRIPOS>ATOM
   1 C1            -0.0172     1.4137     0.0098 C.ar    
   2 C2             0.0021    -0.0041     0.0020 C.ar    
   3 C3            -1.2283    -0.7097     0.0099 C.ar    
   4 C4            -2.4024     0.0319     0.0251 C.ar    
   5 C5            -2.3343     1.4300     0.0320 C.ar    
   6 N6            -1.1789     2.0671     0.0299 N.ar    
   7 C7             1.2055     2.1131     0.0019 C.ar    
   8 C8             2.3775     1.4229    -0.0130 C.ar    
   9 C9             2.3911     0.0293    -0.0210 C.ar    
  10 C10            1.2283    -0.6811    -0.0128 C.ar    
  11 C11           -1.2599    -2.1885     0.0017 C.ar    
  12 C12           -0.7503    -2.9141     1.0953 C.ar    
  13 C13           -0.7870    -4.3086     1.0731 C.ar    
  14 C14           -1.3202    -4.9669    -0.0158 C.ar    
  15 C15           -1.8214    -4.2523    -1.0915 C.ar    
  16 C16           -1.7993    -2.8723    -1.0858 C.ar    
  17 C17           -3.5923     2.2148     0.0477 C.2     
  18 N18           -3.5462     3.5618     0.0546 N.am    
  19 O19           -4.6646     1.6436     0.0545 O.2     
  20 C20           -1.3572    -6.4734    -0.0354 C.3     
  21 C21           -0.1976    -2.2255     2.2227 C.1     
  22 N22            0.2408    -1.6792     3.1170 N.1     
  23 H23           -3.3606    -0.4662     0.0312 H       
  24 H24            1.2123     3.1930     0.0072 H       
  25 H25            3.3125     1.9635    -0.0190 H       
  26 H26            3.3355    -0.4945    -0.0331 H       
  27 H27            1.2520    -1.7608    -0.0195 H       
  28 H28           -0.3978    -4.8726     1.9079 H       
  29 H29           -2.2361    -4.7785    -1.9386 H       
  30 H30           -2.1924    -2.3226    -1.9282 H       
  31 H31           -2.6901     4.0178     0.0492 H       
  32 H32           -4.3691     4.0752     0.0648 H       
  33 H33           -2.2929    -6.8196     0.4035 H       
  34 H34           -1.2865    -6.8252    -1.0646 H       
  35 H35           -0.5188    -6.8649     0.5408 H       
@<TRIPOS>BOND
   1    1    2 ar
   2    1    7 ar
   3    1    6 ar
   4    2    3 ar
   5    2   10 ar
   6    3    4 ar
   7    3   11 1
   8    4    5 ar
   9    4   23 1
  10    5    6 ar
  11    5   17 1
  12    7    8 ar
  13    7   24 1
  14    8    9 ar
  15    8   25 1
  16    9   10 ar
  17    9   26 1
  18   10   27 1
  19   11   12 ar
  20   11   16 ar
  21   12   13 ar
  22   12   21 1
  23   13   14 ar
  24   13   28 1
  25   14   15 ar
  26   14   20 1
  27   15   16 ar
  28   15   29 1
  29   16   30 1
  30   17   18 am
  31   17   19 2
  32   18   31 1
  33   18   32 1
  34   20   33 1
  35   20   34 1
  36   20   35 1
  37   21   22 3

#	End of record

