#	Name: ASD01916033
#	Creating user name:	WinNT
#	Creation time:	15. 06. 2019 20:06

#	Modifying user name:	WinNT
#	Modification time:	15. 06. 2019 20:06

#	Program:	/corina/corina34_cracker 3.40 0067  02.08.2006

@<TRIPOS>MOLECULE
ASD01916033
  43   44    0    0    0
SMALL
NO_CHARGES


@<TRIPOS>ATOM
   1 C1            -0.0249     1.4091    -0.0993 C.ar    
   2 C2            -0.0010     0.0092    -0.0707 C.ar    
   3 C3            -1.2188    -0.6705    -0.0310 C.ar    
   4 C4            -2.4140     0.0731    -0.0213 C.ar    
   5 C5            -3.7136    -0.6317     0.0211 C.2     
   6 N6            -4.8568     0.0701     0.1512 N.am    
   7 O7            -3.7506    -1.8438    -0.0614 O.2     
   8 C8             1.1972     2.1544    -0.1404 C.1     
   9 C9             2.1990     2.7655    -0.1741 C.1     
  10 C10            3.4211     3.5108    -0.2152 C.ar    
  11 C11            3.3909     4.9079    -0.2436 C.ar    
  12 C12            5.8227     3.5696    -0.2605 C.ar    
  13 C13            4.5720     5.6189    -0.2826 C.ar    
  14 N14           -2.3874     1.3992    -0.0495 N.ar    
  15 C15           -1.2603     2.0713    -0.0930 C.ar    
  16 C16            4.6500     2.8450    -0.2213 C.ar    
  17 C17            5.7848     4.9525    -0.2942 C.ar    
  18 C18           -6.1497    -0.6135     0.0653 C.3     
  19 C19           -4.8066     1.5165     0.3786 C.3     
  20 C20           -6.2818    -1.2847    -1.3032 C.3     
  21 C21           -1.2523    -2.1018    -0.0010 C.1     
  22 C22           -6.2399    -1.6740     1.1644 C.3     
  23 N23           -1.2789    -3.2373     0.0228 N.1     
  24 C24           -7.2777     0.4045     0.2451 C.3     
  25 H25            0.9349    -0.5297    -0.0795 H       
  26 H26            2.4452     5.4293    -0.2353 H       
  27 H27            6.7729     3.0564    -0.2698 H       
  28 H28            4.5503     6.6985    -0.3046 H       
  29 H29           -1.2852     3.1508    -0.1143 H       
  30 H30            4.6810     1.7657    -0.1950 H       
  31 H31            6.7065     5.5147    -0.3245 H       
  32 H32           -4.7097     2.0313    -0.5773 H       
  33 H33           -5.7228     1.8385     0.8735 H       
  34 H34           -3.9499     1.7557     1.0086 H       
  35 H35           -5.4782    -2.0099    -1.4312 H       
  36 H36           -7.2438    -1.7933    -1.3671 H       
  37 H37           -6.2176    -0.5292    -2.0862 H       
  38 H38           -6.1458    -1.1958     2.1394 H       
  39 H39           -7.2019    -2.1826     1.1005 H       
  40 H40           -5.4363    -2.3992     1.0364 H       
  41 H41           -7.2135     1.1600    -0.5379 H       
  42 H42           -8.2397    -0.1041     0.1812 H       
  43 H43           -7.1836     0.8827     1.2201 H       
@<TRIPOS>BOND
   1    1    2 ar
   2    1    8 1
   3    1   15 ar
   4    2    3 ar
   5    2   25 1
   6    3    4 ar
   7    3   21 1
   8    4   14 ar
   9    4    5 1
  10    5    6 am
  11    5    7 2
  12    6   19 1
  13    6   18 1
  14    8    9 3
  15    9   10 1
  16   10   11 ar
  17   10   16 ar
  18   11   13 ar
  19   11   26 1
  20   12   17 ar
  21   12   16 ar
  22   12   27 1
  23   13   17 ar
  24   13   28 1
  25   14   15 ar
  26   15   29 1
  27   16   30 1
  28   17   31 1
  29   18   22 1
  30   18   24 1
  31   18   20 1
  32   19   32 1
  33   19   33 1
  34   19   34 1
  35   20   35 1
  36   20   36 1
  37   20   37 1
  38   21   23 3
  39   22   38 1
  40   22   39 1
  41   22   40 1
  42   24   41 1
  43   24   42 1
  44   24   43 1

#	End of record

