#	Name: ASD01910605
#	Creating user name:	WinNT
#	Creation time:	15. 06. 2019 19:56

#	Modifying user name:	WinNT
#	Modification time:	15. 06. 2019 19:56

#	Program:	/corina/corina34_cracker 3.40 0067  02.08.2006

@<TRIPOS>MOLECULE
ASD01910605
  47   50    0    0    0
SMALL
NO_CHARGES


@<TRIPOS>ATOM
   1 C1             0.0244     1.2999    -0.0724 C.ar    
   2 C2             0.0573    -0.0821    -0.0819 C.ar    
   3 C3             1.2684    -0.7526    -0.0863 C.ar    
   4 C4             2.4526    -0.0461    -0.0813 C.ar    
   5 C5             2.4296     1.3499    -0.0721 C.ar    
   6 C6             1.2037     2.0219    -0.0677 C.ar    
   7 C7             3.6944     2.1130    -0.0661 C.2     
   8 N8             3.8228     3.4283    -0.0574 N.2     
   9 C9             5.1446     3.6606    -0.0543 C.2     
  10 N10            5.7470     2.5082    -0.0612 N.2     
  11 O11            4.9368     1.6055    -0.0626 O.3     
  12 C12            5.8104     5.0125    -0.0455 C.3     
  13 C13            6.6816     5.1447     1.2058 C.3     
  14 C14            7.3323     6.5296     1.2324 C.3     
  15 C15            8.2279     6.6923     0.0003 C.3     
  16 N16            7.4295     6.4238    -1.2035 N.am    
  17 C17            6.6887     5.1581    -1.2921 C.3     
  18 C18            7.3776     7.3216    -2.2074 C.2     
  19 C19            8.0508     8.6287    -2.0649 C.ar    
  20 O20            6.7767     7.0556    -3.2302 O.2     
  21 C21            9.4098     8.6862    -1.7495 C.ar    
  22 C22           10.0333     9.9087    -1.6182 C.ar    
  23 C23            9.3133    11.0797    -1.7983 C.ar    
  24 C24            7.9633    11.0283    -2.1112 C.ar    
  25 C25            7.3316     9.8115    -2.2510 C.ar    
  26 F26            9.9290    12.2751    -1.6680 F       
  27 C27            5.8646     9.7572    -2.5915 C.3     
  28 F28            1.1713     3.3725    -0.0593 F       
  29 H29           -0.9240     1.8165    -0.0731 H       
  30 H30           -0.8665    -0.6415    -0.0856 H       
  31 H31            1.2858    -1.8324    -0.0934 H       
  32 H32            3.3961    -0.5717    -0.0840 H       
  33 H33            5.0493     5.7928    -0.0430 H       
  34 H34            6.0630     5.0170     2.0941 H       
  35 H35            7.4574     4.3791     1.1906 H       
  36 H36            6.5573     7.2960     1.2226 H       
  37 H37            7.9340     6.6315     2.1356 H       
  38 H38            8.6155     7.7104    -0.0379 H       
  39 H39            9.0561     5.9857     0.0546 H       
  40 H40            7.3913     4.3263    -1.3432 H       
  41 H41            6.0607     5.1638    -2.1830 H       
  42 H42            9.9714     7.7746    -1.6083 H       
  43 H43           11.0844     9.9543    -1.3742 H       
  44 H44            7.4069    11.9436    -2.2498 H       
  45 H45            5.7396     9.8264    -3.6721 H       
  46 H46            5.4437     8.8164    -2.2366 H       
  47 H47            5.3493    10.5895    -2.1121 H       
@<TRIPOS>BOND
   1    1    2 ar
   2    1    6 ar
   3    1   29 1
   4    2    3 ar
   5    2   30 1
   6    3    4 ar
   7    3   31 1
   8    4    5 ar
   9    4   32 1
  10    5    6 ar
  11    5    7 1
  12    6   28 1
  13    7    8 2
  14    7   11 1
  15    8    9 1
  16    9   10 2
  17    9   12 1
  18   10   11 1
  19   12   13 1
  20   12   17 1
  21   12   33 1
  22   13   14 1
  23   13   34 1
  24   13   35 1
  25   14   15 1
  26   14   36 1
  27   14   37 1
  28   15   16 1
  29   15   38 1
  30   15   39 1
  31   16   17 1
  32   16   18 am
  33   17   40 1
  34   17   41 1
  35   18   19 1
  36   18   20 2
  37   19   21 ar
  38   19   25 ar
  39   21   22 ar
  40   21   42 1
  41   22   23 ar
  42   22   43 1
  43   23   24 ar
  44   23   26 1
  45   24   25 ar
  46   24   44 1
  47   25   27 1
  48   27   45 1
  49   27   46 1
  50   27   47 1

#	End of record

