#	Name: ASD08070237
#	Creating user name:	WinNT
#	Creation time:	15. 06. 2019 21:14

#	Modifying user name:	WinNT
#	Modification time:	15. 06. 2019 21:14

#	Program:	/corina/corina34_cracker 3.40 0067  02.08.2006

@<TRIPOS>MOLECULE
ASD08070237
  36   37    0    0    0
SMALL
NO_CHARGES


@<TRIPOS>ATOM
   1 C1             0.0636     1.2510    -0.5814 C.ar    
   2 C2             0.0024    -0.0046     0.0090 C.ar    
   3 N3            -1.1985    -0.7213     0.0092 N.am    
   4 C4            -1.1818    -2.0645    -0.0999 C.2     
   5 C5             1.1367    -0.5473     0.5989 C.ar    
   6 C6             2.3213     0.1628     0.5967 C.ar    
   7 C7             2.3787     1.4128     0.0079 C.ar    
   8 C8             1.2512     1.9559    -0.5803 C.ar    
   9 C9            -2.4374    -2.8298     0.0182 C.ar    
  10 C10           -2.8703    -3.2919     1.2666 C.ar    
  11 C11           -4.0641    -4.0104     1.3266 C.ar    
  12 C12           -4.7814    -4.2407     0.1360 C.ar    
  13 N13           -4.3308    -3.7831    -1.0243 N.ar    
  14 C14           -3.2119    -3.0972    -1.1146 C.ar    
  15 O15           -0.1317    -2.6455    -0.2957 O.2     
  16 C16           -2.7511    -2.6034    -2.4618 C.3     
  17 C17           -2.0674    -3.0206     2.5127 C.3     
  18 S18           -6.2920    -5.1461     0.1890 S.3     
  19 C19           -6.7353    -5.1210    -1.5657 C.3     
  20 C20           -4.5526    -4.5066     2.5780 C.1     
  21 N21           -4.9402    -4.9001     3.5706 N.1     
  22 H22           -0.8156     1.6738    -1.0449 H       
  23 H23           -2.0436    -0.2515     0.0878 H       
  24 H24            1.0924    -1.5233     1.0592 H       
  25 H25            3.2036    -0.2584     1.0555 H       
  26 H26            3.3062     1.9662     0.0078 H       
  27 H27            1.2995     2.9322    -1.0395 H       
  28 H28           -3.1638    -1.6114    -2.6457 H       
  29 H29           -1.6624    -2.5526    -2.4773 H       
  30 H30           -3.0940    -3.2889    -3.2368 H       
  31 H31           -2.3929    -2.0800     2.9571 H       
  32 H32           -2.2185    -3.8309     3.2259 H       
  33 H33           -1.0100    -2.9546     2.2564 H       
  34 H34           -5.9494    -5.6044    -2.1459 H       
  35 H35           -7.6746    -5.6547    -1.7108 H       
  36 H36           -6.8490    -4.0888    -1.8970 H       
@<TRIPOS>BOND
   1    1    2 ar
   2    1    8 ar
   3    1   22 1
   4    2    3 1
   5    2    5 ar
   6    3    4 am
   7    3   23 1
   8    4    9 1
   9    4   15 2
  10    5    6 ar
  11    5   24 1
  12    6    7 ar
  13    6   25 1
  14    7    8 ar
  15    7   26 1
  16    8   27 1
  17    9   10 ar
  18    9   14 ar
  19   10   11 ar
  20   10   17 1
  21   11   12 ar
  22   11   20 1
  23   12   13 ar
  24   12   18 1
  25   13   14 ar
  26   14   16 1
  27   16   28 1
  28   16   29 1
  29   16   30 1
  30   17   31 1
  31   17   32 1
  32   17   33 1
  33   18   19 1
  34   19   34 1
  35   19   35 1
  36   19   36 1
  37   20   21 3

#	End of record

