#	Name: ASD08150378
#	Creating user name:	WinNT
#	Creation time:	15. 06. 2019 21:15

#	Modifying user name:	WinNT
#	Modification time:	15. 06. 2019 21:15

#	Program:	/corina/corina34_cracker 3.40 0067  02.08.2006

@<TRIPOS>MOLECULE
ASD08150378
  46   50    0    0    0
SMALL
NO_CHARGES


@<TRIPOS>ATOM
   1 N1             0.8945     2.9309    -1.4574 N.am    
   2 C2             1.3198     2.3039    -2.5712 C.2     
   3 C3             2.5296     1.5802    -2.5771 C.2     
   4 C4             3.2864     1.5054    -1.4528 C.2     
   5 C5             2.8421     2.1644    -0.2791 C.ar    
   6 C6             3.5891     2.1189     0.9134 C.ar    
   7 N7             3.1771     2.7281     1.9946 N.ar    
   8 C8             2.0315     3.4250     2.0332 C.ar    
   9 C9             1.2157     3.5245     0.8791 C.ar    
  10 C10            1.6331     2.8763    -0.3071 C.ar    
  11 C11            0.0234     4.2528     0.9298 C.ar    
  12 C12           -0.3485     4.8717     2.1130 C.ar    
  13 C13            0.4644     4.7686     3.2512 C.ar    
  14 C14            1.6267     4.0638     3.2171 C.ar    
  15 O15            0.6494     2.3628    -3.5878 O.2     
  16 C16           -1.6106     5.6462     2.1755 C.ar    
  17 C17           -0.3078     3.6476    -1.4787 C.ar    
  18 C18           -0.3022     5.0081    -1.7587 C.ar    
  19 C19           -1.4899     5.7122    -1.7789 C.ar    
  20 C20           -2.6841     5.0642    -1.5202 C.ar    
  21 C21           -2.6931     3.7101    -1.2411 C.ar    
  22 C22           -1.5091     2.9988    -1.2254 C.ar    
  23 C23           -2.7422     5.2117     1.4819 C.ar    
  24 N24           -3.8642     5.8937     1.5330 N.ar    
  25 C25           -3.9697     7.0143     2.2392 C.ar    
  26 C26           -2.8810     7.5111     2.9582 C.ar    
  27 C27           -1.6854     6.8188     2.9344 C.ar    
  28 C28           -3.9966     3.0082    -0.9598 C.3     
  29 C29           -5.2149     7.7211     2.2627 C.1     
  30 N30           -6.2027     8.2818     2.2813 N.1     
  31 H31            2.8552     1.0833    -3.4790 H       
  32 H32            4.2136     0.9516    -1.4524 H       
  33 H33            4.5193     1.5706     0.9357 H       
  34 H34           -0.6029     4.3329     0.0536 H       
  35 H35            0.1633     5.2556     4.1669 H       
  36 H36            2.2405     3.9948     4.1030 H       
  37 H37            0.6301     5.5147    -1.9601 H       
  38 H38           -1.4862     6.7700    -1.9966 H       
  39 H39           -3.6116     5.6173    -1.5360 H       
  40 H40           -1.5173     1.9401    -1.0121 H       
  41 H41           -2.6945     4.3053     0.8967 H       
  42 H42           -2.9735     8.4227     3.5298 H       
  43 H43           -0.8267     7.1792     3.4813 H       
  44 H44           -4.4162     2.6332    -1.8933 H       
  45 H45           -3.8211     2.1747    -0.2797 H       
  46 H46           -4.6954     3.7089    -0.5029 H       
@<TRIPOS>BOND
   1    1    2 am
   2    1   10 1
   3    1   17 1
   4    2    3 1
   5    2   15 2
   6    3    4 2
   7    3   31 1
   8    4    5 1
   9    4   32 1
  10    5    6 ar
  11    5   10 ar
  12    6    7 ar
  13    6   33 1
  14    7    8 ar
  15    8    9 ar
  16    8   14 ar
  17    9   10 ar
  18    9   11 ar
  19   11   12 ar
  20   11   34 1
  21   12   13 ar
  22   12   16 1
  23   13   14 ar
  24   13   35 1
  25   14   36 1
  26   16   23 ar
  27   16   27 ar
  28   17   18 ar
  29   17   22 ar
  30   18   19 ar
  31   18   37 1
  32   19   20 ar
  33   19   38 1
  34   20   21 ar
  35   20   39 1
  36   21   22 ar
  37   21   28 1
  38   22   40 1
  39   23   24 ar
  40   23   41 1
  41   24   25 ar
  42   25   26 ar
  43   25   29 1
  44   26   27 ar
  45   26   42 1
  46   27   43 1
  47   28   44 1
  48   28   45 1
  49   28   46 1
  50   29   30 3

#	End of record

