#	Name: ASD01816878
#	Creating user name:	WinNT
#	Creation time:	15. 06. 2019 19:36

#	Modifying user name:	WinNT
#	Modification time:	15. 06. 2019 19:36

#	Program:	/corina/corina34_cracker 3.40 0067  02.08.2006

@<TRIPOS>MOLECULE
ASD01816878
  53   56    0    0    0
SMALL
NO_CHARGES


@<TRIPOS>ATOM
   1 C1            -0.2761     1.0829     0.1522 C.ar    
   2 C2            -0.1499    -0.3043     0.1288 C.ar    
   3 C3             1.0760    -0.8954     0.0748 C.ar    
   4 C4             2.2313    -0.0991     0.0416 C.ar    
   5 C5             2.1088     1.3149     0.0647 C.ar    
   6 C6             0.8220     1.8893     0.1213 C.ar    
   7 C7             3.5146    -0.6753    -0.0139 C.ar    
   8 C8             4.5956     0.1574    -0.0434 C.ar    
   9 C9             4.4063     1.5474    -0.0182 C.ar    
  10 N10            3.2001     2.0782     0.0343 N.ar    
  11 C11            5.5894     2.4400    -0.0503 C.2     
  12 N12            5.4253     3.7776    -0.0267 N.am    
  13 O13            6.7071     1.9658    -0.0979 O.2     
  14 C14            6.5945     4.6597    -0.0585 C.3     
  15 C15            6.2393     6.0046     0.5828 C.3     
  16 C16            3.6901    -2.1718    -0.0395 C.3     
  17 C17            3.5727    -2.6672    -1.4579 C.ar    
  18 C18            4.6981    -2.7568    -2.2649 C.ar    
  19 C19            2.3448    -3.0422    -1.9667 C.ar    
  20 N20            2.2315    -3.4778    -3.2078 N.ar    
  21 C21            3.2807    -3.5723    -4.0087 C.ar    
  22 C22            4.5460    -3.2169    -3.5619 C.ar    
  23 C23            7.4415     6.9462     0.4745 C.3     
  24 O24            7.8038     7.0979    -0.8995 O.3     
  25 C25            8.1913     5.8799    -1.5386 C.3     
  26 C26            7.0192     4.8955    -1.5112 C.3     
  27 O27            5.9111     5.8055     1.9593 O.3     
  28 F28            0.6786     3.2325     0.1443 F       
  29 O29            0.9557    -3.8536    -3.6939 O.3     
  30 O30            3.1189    -4.0264    -5.2779 O.3     
  31 C31            1.7931    -4.3811    -5.6760 C.3     
  32 H32           -1.2601     1.5264     0.1910 H       
  33 H33           -1.0369    -0.9199     0.1542 H       
  34 H34            1.1587    -1.9721     0.0579 H       
  35 H35            5.5939    -0.2525    -0.0857 H       
  36 H36            4.5330     4.1561     0.0113 H       
  37 H37            7.4143     4.1984     0.4922 H       
  38 H38            5.3863     6.4418     0.0636 H       
  39 H39            4.6731    -2.4292     0.3550 H       
  40 H40            2.9191    -2.6386     0.5734 H       
  41 H41            5.6705    -2.4737    -1.8899 H       
  42 H42            1.4665    -2.9786    -1.3415 H       
  43 H43            5.4000    -3.2950    -4.2184 H       
  44 H44            7.1801     7.9189     0.8911 H       
  45 H45            8.2821     6.5276     1.0280 H       
  46 H46            8.4701     6.0845    -2.5723 H       
  47 H47            9.0417     5.4473    -1.0114 H       
  48 H48            7.3267     3.9504    -1.9588 H       
  49 H49            6.1820     5.3102    -2.0727 H       
  50 H50            5.6754     6.6173     2.4289 H       
  51 H51            1.4206    -5.1766    -5.0306 H       
  52 H52            1.1431    -3.5103    -5.5914 H       
  53 H53            1.8044    -4.7271    -6.7095 H       
@<TRIPOS>BOND
   1    1    2 ar
   2    1    6 ar
   3    1   32 1
   4    2    3 ar
   5    2   33 1
   6    3    4 ar
   7    3   34 1
   8    4    5 ar
   9    4    7 ar
  10    5    6 ar
  11    5   10 ar
  12    6   28 1
  13    7    8 ar
  14    7   16 1
  15    8    9 ar
  16    8   35 1
  17    9   10 ar
  18    9   11 1
  19   11   12 am
  20   11   13 2
  21   12   14 1
  22   12   36 1
  23   14   15 1
  24   14   26 1
  25   14   37 1
  26   15   23 1
  27   15   27 1
  28   15   38 1
  29   16   17 1
  30   16   39 1
  31   16   40 1
  32   17   18 ar
  33   17   19 ar
  34   18   22 ar
  35   18   41 1
  36   19   20 ar
  37   19   42 1
  38   20   21 ar
  39   20   29 1
  40   21   22 ar
  41   21   30 1
  42   22   43 1
  43   23   24 1
  44   23   44 1
  45   23   45 1
  46   24   25 1
  47   25   26 1
  48   25   46 1
  49   25   47 1
  50   26   48 1
  51   26   49 1
  52   27   50 1
  53   30   31 1
  54   31   51 1
  55   31   52 1
  56   31   53 1

#	End of record

