#	Name: ASD03910057
#	Creating user name:	WinNT
#	Creation time:	15. 06. 2019 20:47

#	Modifying user name:	WinNT
#	Modification time:	15. 06. 2019 20:47

#	Program:	/corina/corina34_cracker 3.40 0067  02.08.2006

@<TRIPOS>MOLECULE
ASD03910057
  76   80    0    0    0
SMALL
NO_CHARGES


@<TRIPOS>ATOM
   1 C1             0.7816    17.0114    -4.6686 C.ar    
   2 C2             1.9091    17.8066    -4.7619 C.ar    
   3 C3             3.1498    17.2936    -4.4307 C.ar    
   4 C4             3.2666    15.9847    -4.0059 C.ar    
   5 C5             2.1362    15.1835    -3.9111 C.ar    
   6 C6             0.8908    15.7035    -4.2386 C.ar    
   7 N7             2.2511    13.8569    -3.4812 N.am    
   8 C8             1.2638    13.2959    -2.7554 C.2     
   9 O9             0.3162    13.9649    -2.4011 O.2     
  10 C10            0.1197    11.4620    -1.5789 C.ar    
  11 C11           -1.0170    11.0041    -2.2193 C.ar    
  12 C12           -2.1323    10.6541    -1.4831 C.ar    
  13 C13           -2.1112    10.7624    -0.1002 C.ar    
  14 C14           -0.9694    11.2220     0.5399 C.ar    
  15 C15            0.1433    11.5708    -0.2008 C.ar    
  16 O16           -3.2073    10.4191     0.6262 O.3     
  17 C17           -3.1107    10.5472     2.0462 C.3     
  18 C18           -2.0491     9.6186     2.5769 C.2     
  19 C19           -0.5686    17.5745    -5.0305 C.3     
  20 C20            4.3759    18.1637    -4.5338 C.3     
  21 O21           -1.3340     9.9737     3.4898 O.2     
  22 N22           -1.8944     8.3933     2.0371 N.am    
  23 C23            1.3371    11.8372    -2.3840 C.3     
  24 C24           -0.7978     7.5299     2.4822 C.3     
  25 C25            0.4609     7.8919     1.7367 C.2     
  26 O26            0.4436     8.7800     0.9177 O.2     
  27 O27            1.6011     7.2278     1.9826 O.3     
  28 C28           -1.1537     6.0684     2.2026 C.3     
  29 C29           -2.7754    12.0010     2.4227 C.3     
  30 C30           -3.9432    12.5118     3.2917 C.3     
  31 C31           -4.5710    11.2236     3.8795 C.3     
  32 C32           -4.4703    10.2240     2.6996 C.3     
  33 C33           -2.3359     5.6688     3.0473 C.2     
  34 C34           -3.7497     5.8396     2.7040 C.ar    
  35 C35           -4.4787     5.3223     3.7902 C.ar    
  36 N36           -3.5641     4.8742     4.7167 N.pl3   
  37 C37           -2.2933     5.0835     4.2547 C.2     
  38 C38           -4.4235     6.3705     1.6023 C.ar    
  39 C39           -5.7896     6.3848     1.5851 C.ar    
  40 C40           -6.5137     5.8759     2.6548 C.ar    
  41 C41           -5.8692     5.3467     3.7512 C.ar    
  42 H42            1.8205    18.8302    -5.0944 H       
  43 H43            4.2360    15.5844    -3.7481 H       
  44 H44            0.0098    15.0831    -4.1656 H       
  45 H45            3.0414    13.3411    -3.7054 H       
  46 H46           -1.0330    10.9204    -3.2959 H       
  47 H47           -3.0201    10.2969    -1.9838 H       
  48 H48           -0.9506    11.3075     1.6164 H       
  49 H49            1.0324    11.9287     0.2971 H       
  50 H50           -0.7602    17.4062    -6.0902 H       
  51 H51           -1.3390    17.0798    -4.4389 H       
  52 H52           -0.5832    18.6446    -4.8240 H       
  53 H53            4.5377    18.6775    -3.5862 H       
  54 H54            5.2428    17.5442    -4.7638 H       
  55 H55            4.2342    18.8988    -5.3261 H       
  56 H56           -2.5092     8.0832     1.3539 H       
  57 H57            1.3737    11.2329    -3.2905 H       
  58 H58            2.2341    11.6578    -1.7913 H       
  59 H59           -0.6387     7.6669     3.5518 H       
  60 H60            2.3824     7.4957     1.4798 H       
  61 H61           -1.4041     5.9508     1.1483 H       
  62 H62           -0.3017     5.4339     2.4466 H       
  63 H63           -1.8453    12.0348     2.9900 H       
  64 H64           -2.6863    12.6088     1.5223 H       
  65 H65           -3.5720    13.1540     4.0903 H       
  66 H66           -4.6700    13.0450     2.6788 H       
  67 H67           -3.9960    10.8694     4.7351 H       
  68 H68           -5.6119    11.3922     4.1553 H       
  69 H69           -5.2821    10.3875     1.9908 H       
  70 H70           -4.4840     9.1978     3.0668 H       
  71 H71           -3.7874     4.4673     5.5685 H       
  72 H72           -1.3897     4.8234     4.7860 H       
  73 H73           -3.8668     6.7688     0.7669 H       
  74 H74           -6.3103     6.7956     0.7328 H       
  75 H75           -7.5931     5.8945     2.6267 H       
  76 H76           -6.4414     4.9529     4.5782 H       
@<TRIPOS>BOND
   1    1    2 ar
   2    1   19 1
   3    1    6 ar
   4    2    3 ar
   5    2   42 1
   6    3    4 ar
   7    3   20 1
   8    4    5 ar
   9    4   43 1
  10    5    6 ar
  11    5    7 1
  12    6   44 1
  13    7    8 am
  14    7   45 1
  15    8    9 2
  16    8   23 1
  17   10   11 ar
  18   10   15 ar
  19   10   23 1
  20   11   12 ar
  21   11   46 1
  22   12   13 ar
  23   12   47 1
  24   13   14 ar
  25   13   16 1
  26   14   15 ar
  27   14   48 1
  28   15   49 1
  29   16   17 1
  30   17   18 1
  31   17   29 1
  32   17   32 1
  33   18   21 2
  34   18   22 am
  35   19   50 1
  36   19   51 1
  37   19   52 1
  38   20   53 1
  39   20   54 1
  40   20   55 1
  41   22   24 1
  42   22   56 1
  43   23   57 1
  44   23   58 1
  45   24   25 1
  46   24   28 1
  47   24   59 1
  48   25   26 2
  49   25   27 1
  50   27   60 1
  51   28   33 1
  52   28   61 1
  53   28   62 1
  54   29   30 1
  55   29   63 1
  56   29   64 1
  57   30   31 1
  58   30   65 1
  59   30   66 1
  60   31   32 1
  61   31   67 1
  62   31   68 1
  63   32   69 1
  64   32   70 1
  65   33   34 1
  66   33   37 2
  67   34   35 ar
  68   34   38 ar
  69   35   36 1
  70   35   41 ar
  71   36   37 1
  72   36   71 1
  73   37   72 1
  74   38   39 ar
  75   38   73 1
  76   39   40 ar
  77   39   74 1
  78   40   41 ar
  79   40   75 1
  80   41   76 1

#	End of record

