#	Name: ASD01320071
#	Creating user name:	WinNT
#	Creation time:	15. 06. 2019 19:15

#	Modifying user name:	WinNT
#	Modification time:	15. 06. 2019 19:15

#	Program:	/corina/corina34_cracker 3.40 0067  02.08.2006

@<TRIPOS>MOLECULE
ASD01320071
  40   43    0    0    0
SMALL
NO_CHARGES


@<TRIPOS>ATOM
   1 O1            -0.0782     1.1133    -1.8143 O.3     
   2 C2            -0.0485    -0.1871    -1.4831 C.2     
   3 O3             1.0095    -0.7639    -1.3941 O.2     
   4 C4            -1.3347    -0.9278    -1.2221 C.3     
   5 O5            -1.0429    -2.2868    -0.8904 O.3     
   6 N6            -2.1897    -3.0740    -0.6253 N.2     
   7 C7            -2.0580    -4.3341    -0.3101 C.2     
   8 C8            -0.8252    -5.1146    -0.1787 C.2     
   9 C9            -1.2248    -6.4236     0.1773 C.2     
  10 N10           -2.5248    -6.4896     0.2675 N.2     
  11 C11           -3.1268    -5.3259     0.0099 C.2     
  12 C12           -4.5114    -5.0822     0.0271 C.2     
  13 C13           -5.3878    -5.1117    -1.0417 C.2     
  14 C14           -5.1004    -5.4075    -2.4881 C.3     
  15 C15           -6.3901    -5.6692    -3.2109 C.2     
  16 C16           -7.5676    -5.3882    -2.7662 C.2     
  17 C17           -7.8825    -4.7474    -1.4476 C.3     
  18 C18           -6.6683    -4.8062    -0.5505 C.2     
  19 N19           -6.6236    -4.5933     0.7476 N.2     
  20 C20           -5.3684    -4.7386     1.2117 C.2     
  21 O21           -4.9995    -4.6085     2.3622 O.2     
  22 C22           -0.1856    -7.5012     0.3907 C.3     
  23 C23            1.0093    -7.2186    -0.5186 C.3     
  24 C24            1.4473    -5.7860    -0.4862 C.2     
  25 C25            0.5803    -4.7648    -0.3432 C.2     
  26 H26            0.7722     1.5457    -1.9721 H       
  27 H27           -1.8634    -0.4570    -0.3933 H       
  28 H28           -1.9589    -0.8978    -2.1152 H       
  29 H29           -4.5971    -4.5532    -2.9407 H       
  30 H30           -4.4594    -6.2863    -2.5588 H       
  31 H31           -6.3264    -6.1311    -4.1850 H       
  32 H32           -8.4041    -5.6371    -3.4024 H       
  33 H33           -8.1648    -3.7069    -1.6082 H       
  34 H34           -8.7089    -5.2780    -0.9747 H       
  35 H35            0.1380    -7.4959     1.4316 H       
  36 H36           -0.6113    -8.4736     0.1431 H       
  37 H37            1.8434    -7.8473    -0.2069 H       
  38 H38            0.7403    -7.4798    -1.5421 H       
  39 H39            2.4998    -5.5632    -0.5812 H       
  40 H40            0.9107    -3.7366    -0.3499 H       
@<TRIPOS>BOND
   1    1    2 1
   2    1   26 1
   3    2    3 2
   4    2    4 1
   5    4    5 1
   6    4   27 1
   7    4   28 1
   8    5    6 1
   9    6    7 2
  10    7    8 1
  11    7   11 1
  12    8    9 2
  13    8   25 1
  14    9   10 1
  15    9   22 1
  16   10   11 2
  17   11   12 1
  18   12   13 2
  19   12   20 1
  20   13   14 1
  21   13   18 1
  22   14   15 1
  23   14   29 1
  24   14   30 1
  25   15   16 2
  26   15   31 1
  27   16   17 1
  28   16   32 1
  29   17   18 1
  30   17   33 1
  31   17   34 1
  32   18   19 2
  33   19   20 1
  34   20   21 2
  35   22   23 1
  36   22   35 1
  37   22   36 1
  38   23   24 1
  39   23   37 1
  40   23   38 1
  41   24   25 2
  42   24   39 1
  43   25   40 1

#	End of record

