#	Name: ASD01913591
#	Creating user name:	WinNT
#	Creation time:	15. 06. 2019 20:01

#	Modifying user name:	WinNT
#	Modification time:	15. 06. 2019 20:01

#	Program:	/corina/corina34_cracker 3.40 0067  02.08.2006

@<TRIPOS>MOLECULE
ASD01913591
  33   35    0    0    0
SMALL
NO_CHARGES


@<TRIPOS>ATOM
   1 C1            -2.8086     0.2908    -1.2466 C.ar    
   2 C2            -2.3020    -0.1541    -0.0298 C.ar    
   3 C3            -3.0951    -0.0155     1.1047 C.ar    
   4 N4            -4.2942     0.5305     0.9870 N.ar    
   5 C5            -4.7389     0.9400    -0.1841 C.ar    
   6 N6            -4.0179     0.8261    -1.2814 N.ar    
   7 C7            -0.9774    -2.0622     0.1329 C.ar    
   8 C8             0.2608    -2.6938     0.2074 C.ar    
   9 C9             0.3124    -4.0734     0.2982 C.ar    
  10 N10           -0.7893    -4.7927     0.3145 N.ar    
  11 C11           -1.9918    -4.2324     0.2456 C.ar    
  12 C12           -2.1252    -2.8511     0.1530 C.ar    
  13 C13           -3.2019    -5.0867     0.2677 C.2     
  14 N14           -3.0797    -6.4259     0.3574 N.am    
  15 O15           -1.0644    -0.7102     0.0486 O.3     
  16 O16           -4.3045    -4.5800     0.2050 O.2     
  17 C17           -4.2159    -7.2220     0.4843 C.ar    
  18 C18           -4.0784    -8.5888     0.6931 C.ar    
  19 C19           -5.2150    -9.3699     0.8182 C.ar    
  20 C20           -6.5186    -7.3865     0.5256 C.ar    
  21 N21           -5.4165    -6.6679     0.4101 N.ar    
  22 C22           -6.4545    -8.7545     0.7297 C.ar    
  23 F23           -7.7228    -6.7794     0.4441 F       
  24 H24           -2.2215     0.2047    -2.1489 H       
  25 H25           -2.7372    -0.3492     2.0675 H       
  26 H26           -5.7225     1.3816    -0.2464 H       
  27 H27            1.1714    -2.1132     0.1941 H       
  28 H28            1.2712    -4.5672     0.3562 H       
  29 H29           -3.1036    -2.3972     0.0974 H       
  30 H30           -2.2007    -6.8355     0.3336 H       
  31 H31           -3.0976    -9.0364     0.7568 H       
  32 H32           -5.1377   -10.4348     0.9807 H       
  33 H33           -7.3602    -9.3355     0.8226 H       
@<TRIPOS>BOND
   1    1    2 ar
   2    1    6 ar
   3    1   24 1
   4    2    3 ar
   5    2   15 1
   6    3    4 ar
   7    3   25 1
   8    4    5 ar
   9    5    6 ar
  10    5   26 1
  11    7    8 ar
  12    7   12 ar
  13    7   15 1
  14    8    9 ar
  15    8   27 1
  16    9   10 ar
  17    9   28 1
  18   10   11 ar
  19   11   12 ar
  20   11   13 1
  21   12   29 1
  22   13   14 am
  23   13   16 2
  24   14   17 1
  25   14   30 1
  26   17   18 ar
  27   17   21 ar
  28   18   19 ar
  29   18   31 1
  30   19   22 ar
  31   19   32 1
  32   20   21 ar
  33   20   23 1
  34   20   22 ar
  35   22   33 1

#	End of record

