#	Name: ASD07930737
#	Creating user name:	WinNT
#	Creation time:	15. 06. 2019 21:13

#	Modifying user name:	WinNT
#	Modification time:	15. 06. 2019 21:13

#	Program:	/corina/corina34_cracker 3.40 0067  02.08.2006

@<TRIPOS>MOLECULE
ASD07930737
  44   45    0    0    0
SMALL
NO_CHARGES


@<TRIPOS>ATOM
   1 C1            -0.0178     1.4608     0.0101 C.3     
   2 N2            -0.8781    -1.7624    -1.2878 N.pl3   
   3 C3            -0.9038    -2.8144    -0.2662 C.3     
   4 C4            -1.2096    -2.1836     1.0997 C.3     
   5 S5             0.0275    -0.8856     1.4159 S.o2    
   6 N6             0.0021    -0.0041     0.0020 N.am    
   7 C7             0.0002    -0.7195    -1.1736 C.2     
   8 C8             0.4578    -3.5103    -0.2147 C.3     
   9 O9            -0.4335     0.0193     2.4098 O.2     
  10 O10            1.3357    -1.4378     1.4696 O.2     
  11 C11           -1.9725    -3.8210    -0.6067 C.2     
  12 S12           -3.3527    -4.2167     0.4091 S.3     
  13 C13           -3.9299    -5.3808    -0.7761 C.2     
  14 C14           -3.0970    -5.4086    -1.8189 C.2     
  15 C15           -2.0191    -4.5436    -1.7271 C.2     
  16 Br16          -5.4912    -6.4331    -0.5998 Br      
  17 Cl17          -0.8144    -4.4175    -2.9706 Cl      
  18 N18            0.8225    -0.4081    -2.1636 N.2     
  19 O19            1.6413    -0.8005    -4.3070 O.3     
  20 C20            1.5664    -1.6006    -5.4887 C.3     
  21 C21            0.1581    -1.5074    -6.0793 C.3     
  22 C22            2.5836    -1.0938    -6.5130 C.3     
  23 C23            1.8773    -3.0572    -5.1389 C.3     
  24 C24            0.8032    -1.1179    -3.2981 C.2     
  25 O25            0.0296    -2.0500    -3.4198 O.2     
  26 H26            1.0048     1.8381     0.0023 H       
  27 H27           -0.5450     1.8219    -0.8730 H       
  28 H28           -0.5280     1.8123     0.9069 H       
  29 H29           -1.4809    -1.8081    -2.0464 H       
  30 H30           -2.2076    -1.7454     1.0874 H       
  31 H31           -1.1511    -2.9448     1.8778 H       
  32 H32            1.2291    -2.7815     0.0343 H       
  33 H33            0.4378    -4.2920     0.5448 H       
  34 H34            0.6765    -3.9533    -1.1863 H       
  35 H35           -3.2536    -6.0538    -2.6708 H       
  36 H36           -0.0634    -0.4696    -6.3286 H       
  37 H37            0.1010    -2.1177    -6.9807 H       
  38 H38           -0.5666    -1.8684    -5.3496 H       
  39 H39            3.5869    -1.1602    -6.0923 H       
  40 H40            2.5265    -1.7041    -7.4144 H       
  41 H41            2.3621    -0.0560    -6.7623 H       
  42 H42            1.1527    -3.4183    -4.4091 H       
  43 H43            1.8202    -3.6675    -6.0402 H       
  44 H44            2.8806    -3.1237    -4.7181 H       
@<TRIPOS>BOND
   1    1    6 1
   2    1   26 1
   3    1   27 1
   4    1   28 1
   5    2    3 1
   6    2    7 1
   7    2   29 1
   8    3    4 1
   9    3    8 1
  10    3   11 1
  11    4    5 1
  12    4   30 1
  13    4   31 1
  14    5    6 am
  15    5    9 2
  16    5   10 2
  17    6    7 1
  18    7   18 2
  19    8   32 1
  20    8   33 1
  21    8   34 1
  22   11   12 1
  23   11   15 2
  24   12   13 1
  25   13   14 2
  26   13   16 1
  27   14   15 1
  28   14   35 1
  29   15   17 1
  30   18   24 1
  31   19   20 1
  32   19   24 1
  33   20   21 1
  34   20   22 1
  35   20   23 1
  36   21   36 1
  37   21   37 1
  38   21   38 1
  39   22   39 1
  40   22   40 1
  41   22   41 1
  42   23   42 1
  43   23   43 1
  44   23   44 1
  45   24   25 2

#	End of record

