#	Name: ASD02039460
#	Creating user name:	WinNT
#	Creation time:	15. 06. 2019 20:18

#	Modifying user name:	WinNT
#	Modification time:	15. 06. 2019 20:18

#	Program:	/corina/corina34_cracker 3.40 0067  02.08.2006

@<TRIPOS>MOLECULE
ASD02039460
  48   51    0    0    0
SMALL
NO_CHARGES


@<TRIPOS>ATOM
   1 C1             0.3119     1.6963     0.1756 C.ar    
   2 C2             0.7333     0.3811     0.0969 C.ar    
   3 C3             1.3267     2.8100     0.2065 C.3     
   4 N4             1.6906     3.1772    -1.1642 N.am    
   5 C5             1.0752     4.2114    -1.7709 C.2     
   6 C6            -0.0249     4.9161    -1.0899 C.2     
   7 C7            -0.7961     5.9094    -1.6189 C.2     
   8 N8            -0.4598     4.6913     0.1764 N.2     
   9 C9            -1.4461     5.5012     0.4327 C.2     
  10 N10           -1.6811     6.2721    -0.6609 N.pl3   
  11 O11            1.4279     4.5629    -2.8805 O.2     
  12 C12           -2.7076     7.3103    -0.7815 C.3     
  13 C13            2.7237     2.4202    -1.8756 C.3     
  14 C14           -0.1914    -0.6468     0.0676 C.ar    
  15 C15           -1.9739     0.9621     0.1857 C.ar    
  16 C16           -1.0357     1.9917     0.2201 C.ar    
  17 C17           -3.4228     1.2734     0.2328 C.ar    
  18 N18           -4.2139     0.6015     1.0589 N.ar    
  19 C19           -5.5064     0.8477     1.1313 C.ar    
  20 C20           -6.0898     1.8220     0.3431 C.ar    
  21 C21           -5.3006     2.5500    -0.5359 C.ar    
  22 C22           -3.9431     2.2751    -0.5884 C.ar    
  23 C23           -1.5437    -0.3644     0.1169 C.ar    
  24 F24           -2.4469    -1.3687     0.0883 F       
  25 C25            2.2695     1.8992    -3.2493 C.3     
  26 C26            3.6699     2.2701    -3.7653 C.3     
  27 C27            3.7270     3.3073    -2.6313 C.3     
  28 F28           -3.1370     2.9597    -1.4291 F       
  29 H29            1.7888     0.1562     0.0578 H       
  30 H30            0.9007     3.6757     0.7136 H       
  31 H31            2.2158     2.4766     0.7416 H       
  32 H32           -0.7156     6.3267    -2.6118 H       
  33 H33           -1.9915     5.5502     1.3636 H       
  34 H34           -2.2959     8.2673    -0.4611 H       
  35 H35           -3.0305     7.3831    -1.8201 H       
  36 H36           -3.5603     7.0530    -0.1532 H       
  37 H37            3.1942     1.6587    -1.2536 H       
  38 H38            0.1436    -1.6717     0.0058 H       
  39 H39           -1.3625     3.0196     0.2737 H       
  40 H40           -6.1187     0.2799     1.8162 H       
  41 H41           -7.1504     2.0146     0.4105 H       
  42 H42           -5.7336     3.3162    -1.1619 H       
  43 H43            2.0679     0.8281    -3.2653 H       
  44 H44            1.4691     2.4883    -3.6969 H       
  45 H45            4.4005     1.4680    -3.6605 H       
  46 H46            3.6653     2.7122    -4.7616 H       
  47 H47            3.3250     4.2814    -2.9100 H       
  48 H48            4.7019     3.3730    -2.1483 H       
@<TRIPOS>BOND
   1    1    2 ar
   2    1    3 1
   3    1   16 ar
   4    2   14 ar
   5    2   29 1
   6    3    4 1
   7    3   30 1
   8    3   31 1
   9    4    5 am
  10    4   13 1
  11    5    6 1
  12    5   11 2
  13    6    7 2
  14    6    8 1
  15    7   10 1
  16    7   32 1
  17    8    9 2
  18    9   10 1
  19    9   33 1
  20   10   12 1
  21   12   34 1
  22   12   35 1
  23   12   36 1
  24   13   25 1
  25   13   27 1
  26   13   37 1
  27   14   23 ar
  28   14   38 1
  29   15   16 ar
  30   15   17 1
  31   15   23 ar
  32   16   39 1
  33   17   18 ar
  34   17   22 ar
  35   18   19 ar
  36   19   20 ar
  37   19   40 1
  38   20   21 ar
  39   20   41 1
  40   21   22 ar
  41   21   42 1
  42   22   28 1
  43   23   24 1
  44   25   26 1
  45   25   43 1
  46   25   44 1
  47   26   27 1
  48   26   45 1
  49   26   46 1
  50   27   47 1
  51   27   48 1

#	End of record

