#	Name: ASD08710048
#	Creating user name:	WinNT
#	Creation time:	15. 06. 2019 21:19

#	Modifying user name:	WinNT
#	Modification time:	15. 06. 2019 21:19

#	Program:	/corina/corina34_cracker 3.40 0067  02.08.2006

@<TRIPOS>MOLECULE
ASD08710048
  49   51    0    0    0
SMALL
NO_CHARGES


@<TRIPOS>ATOM
   1 C1             3.3684    -0.9517     1.6600 C.ar    
   2 C2             3.3097    -2.2623     1.2248 C.ar    
   3 C3             2.5124    -0.0068     1.1252 C.ar    
   4 C4             1.5980    -0.3727     0.1556 C.ar    
   5 C5             1.5396    -1.6835    -0.2800 C.ar    
   6 C6             2.3950    -2.6283     0.2548 C.ar    
   7 S7             2.3209    -4.2987    -0.3007 S.o2    
   8 O8             3.3479    -4.9972     0.3897 O.2     
   9 O9             0.9525    -4.6785    -0.2491 O.2     
  10 N10            2.7471    -4.3025    -1.9009 N.am    
  11 C11            4.1621    -4.3066    -2.2981 C.3     
  12 C12            1.7172    -4.3081    -2.9493 C.3     
  13 C13            1.9675    -5.5044    -3.8759 C.3     
  14 N14            3.3825    -5.5028    -4.2730 N.am    
  15 C15            4.4072    -5.5029    -3.2260 C.3     
  16 C16            3.7294    -5.5068    -5.5754 C.2     
  17 C17            5.1518    -5.6241    -5.9611 C.ar    
  18 O18            2.8728    -5.4139    -6.4328 O.2     
  19 C19            5.7176    -4.7260    -6.8673 C.ar    
  20 N20            6.9844    -4.8304    -7.2108 N.ar    
  21 C21            7.7640    -5.7752    -6.7202 C.ar    
  22 C22            7.2790    -6.7036    -5.8170 C.ar    
  23 C23            5.9552    -6.6342    -5.4192 C.ar    
  24 C24            0.5419    -2.0827    -1.3366 C.3     
  25 C25            4.8714    -3.6278    -7.4579 C.3     
  26 C26            4.3611    -0.5541     2.7217 C.3     
  27 F27            5.5593    -0.1607     2.1160 F       
  28 F28            3.8444     0.5104     3.4680 F       
  29 F29            4.6013    -1.6428     3.5668 F       
  30 H30            3.9785    -3.0003     1.6422 H       
  31 H31            2.5581     1.0172     1.4655 H       
  32 H32            0.9289     0.3653    -0.2616 H       
  33 H33            4.3970    -3.3813    -2.8242 H       
  34 H34            4.7905    -4.3961    -1.4120 H       
  35 H35            0.7314    -4.3986    -2.4932 H       
  36 H36            1.7741    -3.3829    -3.5229 H       
  37 H37            1.7366    -6.4300    -3.3487 H       
  38 H38            1.3387    -5.4186    -4.7621 H       
  39 H39            5.3940    -5.4116    -3.6799 H       
  40 H40            4.3482    -6.4304    -2.6565 H       
  41 H41            8.7977    -5.8245    -7.0291 H       
  42 H42            7.9275    -7.4721    -5.4231 H       
  43 H43            5.5503    -7.3462    -4.7153 H       
  44 H44            0.9930    -1.9718    -2.3227 H       
  45 H45            0.2490    -3.1217    -1.1858 H       
  46 H46           -0.3380    -1.4432    -1.2656 H       
  47 H47            4.8460    -2.7804    -6.7728 H       
  48 H48            5.2980    -3.3126    -8.4101 H       
  49 H49            3.8581    -3.9961    -7.6179 H       
@<TRIPOS>BOND
   1    1    2 ar
   2    1    3 ar
   3    1   26 1
   4    2    6 ar
   5    2   30 1
   6    3    4 ar
   7    3   31 1
   8    4    5 ar
   9    4   32 1
  10    5    6 ar
  11    5   24 1
  12    6    7 1
  13    7    8 2
  14    7    9 2
  15    7   10 am
  16   10   11 1
  17   10   12 1
  18   11   15 1
  19   11   33 1
  20   11   34 1
  21   12   13 1
  22   12   35 1
  23   12   36 1
  24   13   14 1
  25   13   37 1
  26   13   38 1
  27   14   15 1
  28   14   16 am
  29   15   39 1
  30   15   40 1
  31   16   17 1
  32   16   18 2
  33   17   19 ar
  34   17   23 ar
  35   19   20 ar
  36   19   25 1
  37   20   21 ar
  38   21   22 ar
  39   21   41 1
  40   22   23 ar
  41   22   42 1
  42   23   43 1
  43   24   44 1
  44   24   45 1
  45   24   46 1
  46   25   47 1
  47   25   48 1
  48   25   49 1
  49   26   27 1
  50   26   28 1
  51   26   29 1

#	End of record

