#	Name: ASD01908358
#	Creating user name:	WinNT
#	Creation time:	15. 06. 2019 19:55

#	Modifying user name:	WinNT
#	Modification time:	15. 06. 2019 19:55

#	Program:	/corina/corina34_cracker 3.40 0067  02.08.2006

@<TRIPOS>MOLECULE
ASD01908358
  42   45    0    0    0
SMALL
NO_CHARGES


@<TRIPOS>ATOM
   1 C1            -0.0145     1.4094     0.0542 C.ar    
   2 C2             0.0002     0.0275     0.0478 C.ar    
   3 C3             1.2044    -0.6452     0.0282 C.ar    
   4 C4             2.4044     0.0560     0.0148 C.ar    
   5 C5             2.3899     1.4323     0.0212 C.ar    
   6 C6             1.1753     2.1077     0.0410 C.ar    
   7 S7             4.0585    -0.5558    -0.0113 S.o2    
   8 N8             5.0536     0.7724    -0.0194 N.am    
   9 S9             4.0306     2.0791     0.0010 S.o2    
  10 C10            6.4524     0.7873    -0.0384 C.ar    
  11 C11            7.1340     1.9974    -0.0427 C.ar    
  12 C12            7.1596    -0.4081    -0.0472 C.ar    
  13 C13            8.5399    -0.3933    -0.0655 C.ar    
  14 C14            9.2213     0.8167    -0.0751 C.ar    
  15 C15            8.5144     2.0119    -0.0610 C.ar    
  16 N16           10.6219     0.8316    -0.0932 N.am    
  17 C17           11.2769     1.7969    -0.7682 C.2     
  18 O18           10.6557     2.5970    -1.4406 O.2     
  19 C19           12.7498     1.8829    -0.6910 C.ar    
  20 C20           13.4663     0.9660     0.0801 C.ar    
  21 C21           14.8413     1.0518     0.1480 C.ar    
  22 C22           15.5116     2.0439    -0.5459 C.ar    
  23 C23           14.8092     2.9563    -1.3122 C.ar    
  24 C24           13.4327     2.8790    -1.3941 C.ar    
  25 O25            4.1900     2.7357    -1.2492 O.2     
  26 O26            4.2253     2.7244     1.2519 O.2     
  27 O27            4.2669    -1.2084     1.2337 O.2     
  28 O28            4.2316    -1.1972    -1.2675 O.2     
  29 Cl29          12.5522     4.0243    -2.3566 Cl      
  30 H30           -0.9545     1.9411     0.0651 H       
  31 H31           -0.9283    -0.5242     0.0585 H       
  32 H32            1.2149    -1.7251     0.0235 H       
  33 H33            1.1628     3.1876     0.0457 H       
  34 H34            6.5843     2.9269    -0.0321 H       
  35 H35            6.6296    -1.3491    -0.0393 H       
  36 H36            9.0899    -1.3228    -0.0719 H       
  37 H37            9.0445     2.9529    -0.0684 H       
  38 H38           11.1204     0.1472     0.3801 H       
  39 H39           12.9451     0.1912     0.6228 H       
  40 H40           15.3964     0.3431     0.7446 H       
  41 H41           16.5882     2.1062    -0.4886 H       
  42 H42           15.3386     3.7281    -1.8513 H       
@<TRIPOS>BOND
   1    1    2 ar
   2    1    6 ar
   3    1   30 1
   4    2    3 ar
   5    2   31 1
   6    3    4 ar
   7    3   32 1
   8    4    5 ar
   9    4    7 1
  10    5    6 ar
  11    5    9 1
  12    6   33 1
  13    7    8 am
  14    7   27 2
  15    7   28 2
  16    8    9 am
  17    8   10 1
  18    9   25 2
  19    9   26 2
  20   10   11 ar
  21   10   12 ar
  22   11   15 ar
  23   11   34 1
  24   12   13 ar
  25   12   35 1
  26   13   14 ar
  27   13   36 1
  28   14   15 ar
  29   14   16 1
  30   15   37 1
  31   16   17 am
  32   16   38 1
  33   17   18 2
  34   17   19 1
  35   19   20 ar
  36   19   24 ar
  37   20   21 ar
  38   20   39 1
  39   21   22 ar
  40   21   40 1
  41   22   23 ar
  42   22   41 1
  43   23   24 ar
  44   23   42 1
  45   24   29 1

#	End of record

