#	Name: ASD08150630
#	Creating user name:	WinNT
#	Creation time:	15. 06. 2019 21:16

#	Modifying user name:	WinNT
#	Modification time:	15. 06. 2019 21:16

#	Program:	/corina/corina34_cracker 3.40 0067  02.08.2006

@<TRIPOS>MOLECULE
ASD08150630
  66   72    0    0    0
SMALL
NO_CHARGES


@<TRIPOS>ATOM
   1 N1            -0.0683     0.6326     4.1253 N.am    
   2 C2            -0.8232    -0.3972     4.5550 C.2     
   3 C3            -0.3159    -1.3280     5.4841 C.2     
   4 C4             0.9484    -1.1976     5.9608 C.2     
   5 C5             1.7454    -0.1157     5.5104 C.ar    
   6 C6             3.0630     0.0654     5.9727 C.ar    
   7 N7             3.7960     1.0644     5.5555 N.ar    
   8 C8             3.3432     1.9669     4.6719 C.ar    
   9 C9             2.0292     1.8627     4.1529 C.ar    
  10 C10            1.2098     0.7933     4.5849 C.ar    
  11 C11            1.5665     2.8089     3.2334 C.ar    
  12 C12            2.4016     3.8417     2.8386 C.ar    
  13 C13            3.7010     3.9379     3.3562 C.ar    
  14 C14            4.1652     3.0253     4.2512 C.ar    
  15 O15           -1.9606    -0.5255     4.1349 O.2     
  16 C16            1.9189     4.8496     1.8636 C.ar    
  17 C17           -0.5939     1.5413     3.1973 C.ar    
  18 C18           -0.5874     1.2328     1.8429 C.ar    
  19 C19           -1.1049     2.1277     0.9287 C.ar    
  20 C20           -1.6326     3.3374     1.3631 C.ar    
  21 C21           -1.6390     3.6458     2.7174 C.ar    
  22 C22           -1.1264     2.7479     3.6321 C.ar    
  23 N23           -2.1565     4.2443     0.4371 N.3     
  24 C24            1.0124     4.4818     0.8565 C.ar    
  25 N25            0.5693     5.3501    -0.0169 N.ar    
  26 C26            0.9573     6.6296     0.0060 C.ar    
  27 C27            1.8710     7.0788     0.9926 C.ar    
  28 C28            2.3553     6.1642     1.9436 C.ar    
  29 C29           -3.6190     4.1343     0.3624 C.3     
  30 C30           -1.5421     4.0615    -0.8841 C.3     
  31 C31           -2.0299     5.1600    -1.8313 C.3     
  32 C32           -3.5555     5.0904    -1.9432 C.3     
  33 C33           -4.1688     5.2350    -0.5477 C.3     
  34 C34            0.4708     7.5475    -0.9411 C.ar    
  35 C35            0.8803     8.8447    -0.8983 C.ar    
  36 C36            1.7787     9.2840     0.0722 C.ar    
  37 C37            2.2722     8.4255     1.0063 C.ar    
  38 C38           -2.2108     4.9580     3.1887 C.3     
  39 F39           -1.3968     5.4864     4.1964 F       
  40 F40           -2.2666     5.8545     2.1162 F       
  41 F41           -3.5000     4.7513     3.6912 F       
  42 H42           -0.9352    -2.1474     5.8180 H       
  43 H43            1.3412    -1.9080     6.6732 H       
  44 H44            3.4756    -0.6336     6.6851 H       
  45 H45            0.5660     2.7351     2.8336 H       
  46 H46            4.3418     4.7477     3.0399 H       
  47 H47            5.1687     3.1149     4.6400 H       
  48 H48           -0.1769     0.2926     1.5052 H       
  49 H49           -1.0995     1.8879    -0.1243 H       
  50 H50           -1.1354     2.9857     4.6856 H       
  51 H51            0.6729     3.4580     0.8011 H       
  52 H52            3.0522     6.4735     2.7084 H       
  53 H53           -3.8897     3.1593    -0.0426 H       
  54 H54           -4.0428     4.2431     1.3607 H       
  55 H55           -0.4575     4.1174    -0.7911 H       
  56 H56           -1.8225     3.0868    -1.2833 H       
  57 H57           -1.7378     6.1344    -1.4397 H       
  58 H58           -1.5859     5.0150    -2.8161 H       
  59 H59           -3.9110     5.8982    -2.5828 H       
  60 H60           -3.8459     4.1310    -2.3711 H       
  61 H61           -5.2528     5.1436    -0.6153 H       
  62 H62           -3.9103     6.2106    -0.1358 H       
  63 H63           -0.2256     7.2242    -1.7007 H       
  64 H64            0.5029     9.5451    -1.6287 H       
  65 H65            2.0878    10.3188     0.0831 H       
  66 H66            2.9678     8.7774     1.7537 H       
@<TRIPOS>BOND
   1    1    2 am
   2    1   10 1
   3    1   17 1
   4    2    3 1
   5    2   15 2
   6    3    4 2
   7    3   42 1
   8    4    5 1
   9    4   43 1
  10    5    6 ar
  11    5   10 ar
  12    6    7 ar
  13    6   44 1
  14    7    8 ar
  15    8    9 ar
  16    8   14 ar
  17    9   10 ar
  18    9   11 ar
  19   11   12 ar
  20   11   45 1
  21   12   13 ar
  22   12   16 1
  23   13   14 ar
  24   13   46 1
  25   14   47 1
  26   16   24 ar
  27   16   28 ar
  28   17   18 ar
  29   17   22 ar
  30   18   19 ar
  31   18   48 1
  32   19   20 ar
  33   19   49 1
  34   20   21 ar
  35   20   23 1
  36   21   22 ar
  37   21   38 1
  38   22   50 1
  39   23   29 1
  40   23   30 1
  41   24   25 ar
  42   24   51 1
  43   25   26 ar
  44   26   27 ar
  45   26   34 ar
  46   27   28 ar
  47   27   37 ar
  48   28   52 1
  49   29   33 1
  50   29   53 1
  51   29   54 1
  52   30   31 1
  53   30   55 1
  54   30   56 1
  55   31   32 1
  56   31   57 1
  57   31   58 1
  58   32   33 1
  59   32   59 1
  60   32   60 1
  61   33   61 1
  62   33   62 1
  63   34   35 ar
  64   34   63 1
  65   35   36 ar
  66   35   64 1
  67   36   37 ar
  68   36   65 1
  69   37   66 1
  70   38   39 1
  71   38   40 1
  72   38   41 1

#	End of record

