#	Name: ASD02970003
#	Creating user name:	WinNT
#	Creation time:	15. 06. 2019 20:26

#	Modifying user name:	WinNT
#	Modification time:	15. 06. 2019 20:26

#	Program:	/corina/corina34_cracker 3.40 0067  02.08.2006

@<TRIPOS>MOLECULE
ASD02970003
  41   40    0    0    0
SMALL
NO_CHARGES


@<TRIPOS>ATOM
   1 C1             0.3783     1.0751    -1.6086 C.3     
   2 O2             0.3536    -0.3117    -1.2647 O.3     
   3 P3            -1.0100    -1.1556    -1.1221 P.3     
   4 O4            -0.6576    -2.7039    -0.8559 O.3     
   5 O5            -1.8702    -0.5812     0.1116 O.3     
   6 O6            -1.7968    -1.0363    -2.3700 O.2     
   7 C7            -1.6520    -3.7279    -0.7878 C.3     
   8 C8            -0.9785    -5.0760    -0.5237 C.3     
   9 N9            -0.3955    -5.0764     0.8246 N.4     
  10 C10           -1.4357    -4.7462     1.8080 C.3     
  11 C11            0.1535    -6.4064     1.1204 C.3     
  12 C12            0.6787    -4.0767     0.8939 C.3     
  13 C13            1.8277     1.5626    -1.6582 C.3     
  14 C14            1.8618     3.0120    -2.1469 C.3     
  15 O15            3.2412     3.4364    -2.3071 O.3     
  16 C16            3.4467     4.6927    -2.7329 C.2     
  17 O17            2.5052     5.4138    -2.9641 O.2     
  18 *18            4.9011     5.2216    -2.9292 Du      
  19 O19            2.4099     1.4857    -0.3302 O.3     
  20 C20            3.7318     1.2651    -0.2563 C.2     
  21 O21            4.3810     1.1403    -1.2676 O.2     
  22 *22            4.4300     1.1698     1.1355 Du      
  23 H23           -0.0860     1.2157    -2.5847 H       
  24 H24           -0.1713     1.6450    -0.8595 H       
  25 H25           -1.4154    -0.6278     0.9637 H       
  26 H26           -2.3483    -3.5050     0.0206 H       
  27 H27           -2.1940    -3.7714    -1.7325 H       
  28 H28           -1.7184    -5.8729    -0.5998 H       
  29 H29           -0.1915    -5.2394    -1.2599 H       
  30 H30           -2.2328    -5.4880     1.7566 H       
  31 H31           -1.0031    -4.7465     2.8085 H       
  32 H32           -1.8431    -3.7593     1.5885 H       
  33 H33            0.9254    -6.6514     0.3908 H       
  34 H34            0.5861    -6.4066     2.1209 H       
  35 H35           -0.6435    -7.1481     1.0690 H       
  36 H36            0.2479    -3.0766     0.8461 H       
  37 H37            1.2236    -4.1932     1.8307 H       
  38 H38            1.3616    -4.2186     0.0563 H       
  39 H39            2.3989     0.9349    -2.3422 H       
  40 H40            1.3458     3.0849    -3.1043 H       
  41 H41            1.3668     3.6531    -1.4176 H       
@<TRIPOS>BOND
   1    1    2 1
   2    1   13 1
   3    1   23 1
   4    1   24 1
   5    2    3 1
   6    3    4 1
   7    3    5 1
   8    3    6 2
   9    4    7 1
  10    5   25 1
  11    7    8 1
  12    7   26 1
  13    7   27 1
  14    8    9 1
  15    8   28 1
  16    8   29 1
  17    9   10 1
  18    9   11 1
  19    9   12 1
  20   10   30 1
  21   10   31 1
  22   10   32 1
  23   11   33 1
  24   11   34 1
  25   11   35 1
  26   12   36 1
  27   12   37 1
  28   12   38 1
  29   13   14 1
  30   13   19 1
  31   13   39 1
  32   14   15 1
  33   14   40 1
  34   14   41 1
  35   15   16 1
  36   16   17 2
  37   16   18 1
  38   19   20 1
  39   20   21 2
  40   20   22 1

#	End of record

