#	Name: ASD01811529
#	Creating user name:	WinNT
#	Creation time:	15. 06. 2019 19:26

#	Modifying user name:	WinNT
#	Modification time:	15. 06. 2019 19:26

#	Program:	/corina/corina34_cracker 3.40 0067  02.08.2006

@<TRIPOS>MOLECULE
ASD01811529
  45   46    0    0    0
SMALL
NO_CHARGES


@<TRIPOS>ATOM
   1 C1            -0.0096     1.4718     0.0891 C.2     
   2 C2             0.0061    -0.0047     0.0404 C.ar    
   3 C3             1.2149    -0.6874    -0.1186 C.ar    
   4 C4             1.2309    -2.0668    -0.1643 C.ar    
   5 C5             0.0541    -2.7815    -0.0534 C.ar    
   6 C6            -1.1608    -2.1121     0.1055 C.ar    
   7 C7            -1.1840    -0.7203     0.1587 C.ar    
   8 O8             1.0357     2.0905     0.0967 O.2     
   9 O9            -1.1833     2.1323     0.1195 O.3     
  10 C10           -2.3797    -2.8550     0.2194 C.1     
  11 C11           -3.3790    -3.4640     0.3128 C.1     
  12 Si12          -4.9963    -4.4496     0.4640 Si      
  13 C13           -6.4254    -3.2712     0.6634 C.3     
  14 C14           -5.2454    -5.4736    -1.0723 C.3     
  15 C15           -4.9039    -5.5706     1.9492 C.3     
  16 C16            2.5037     0.0841    -0.2410 C.3     
  17 C17            0.0816    -4.2873    -0.1044 C.3     
  18 C18            0.6551    -4.8489    -1.4161 C.3     
  19 C19            1.3629    -5.9121    -0.5597 C.3     
  20 C20            1.3002    -4.9055     0.6012 C.3     
  21 C21           -1.1228     3.5822     0.1667 C.3     
  22 H22            2.1678    -2.5897    -0.2877 H       
  23 H23           -2.1206    -0.1980     0.2866 H       
  24 H24           -6.4795    -2.6154    -0.2055 H       
  25 H25           -7.3532    -3.8367     0.7502 H       
  26 H26           -6.2796    -2.6721     1.5623 H       
  27 H27           -4.4093    -6.1630    -1.1890 H       
  28 H28           -6.1733    -6.0390    -0.9856 H       
  29 H29           -5.2995    -4.8177    -1.9412 H       
  30 H30           -4.7581    -4.9715     2.8480 H       
  31 H31           -5.8317    -6.1360     2.0359 H       
  32 H32           -4.0677    -6.2601     1.8325 H       
  33 H33            2.8679     0.3430     0.7532 H       
  34 H34            3.2466    -0.5284    -0.7520 H       
  35 H35            2.3287     0.9955    -0.8127 H       
  36 H36           -0.8675    -4.7381     0.1855 H       
  37 H37           -0.1026    -5.2594    -2.0835 H       
  38 H38            1.3402    -4.1673    -1.9203 H       
  39 H39            0.7648    -6.8080    -0.3935 H       
  40 H40            2.3774    -6.1346    -0.8904 H       
  41 H41            2.1617    -4.2394     0.6485 H       
  42 H42            1.0633    -5.3617     1.5624 H       
  43 H43           -2.1344     3.9876     0.1875 H       
  44 H44           -0.5877     3.8945     1.0636 H       
  45 H45           -0.6008     3.9530    -0.7154 H       
@<TRIPOS>BOND
   1    1    2 1
   2    1    8 2
   3    1    9 1
   4    2    3 ar
   5    2    7 ar
   6    3    4 ar
   7    3   16 1
   8    4    5 ar
   9    4   22 1
  10    5    6 ar
  11    5   17 1
  12    6    7 ar
  13    6   10 1
  14    7   23 1
  15    9   21 1
  16   10   11 3
  17   11   12 1
  18   12   13 1
  19   12   14 1
  20   12   15 1
  21   13   24 1
  22   13   25 1
  23   13   26 1
  24   14   27 1
  25   14   28 1
  26   14   29 1
  27   15   30 1
  28   15   31 1
  29   15   32 1
  30   16   33 1
  31   16   34 1
  32   16   35 1
  33   17   18 1
  34   17   20 1
  35   17   36 1
  36   18   19 1
  37   18   37 1
  38   18   38 1
  39   19   20 1
  40   19   39 1
  41   19   40 1
  42   20   41 1
  43   20   42 1
  44   21   43 1
  45   21   44 1
  46   21   45 1

#	End of record

