#	Name: ASD01410689
#	Creating user name:	WinNT
#	Creation time:	15. 06. 2019 19:18

#	Modifying user name:	WinNT
#	Modification time:	15. 06. 2019 19:18

#	Program:	/corina/corina34_cracker 3.40 0067  02.08.2006

@<TRIPOS>MOLECULE
ASD01410689
  77   80    0    0    0
SMALL
NO_CHARGES


@<TRIPOS>ATOM
   1 C1            -0.1736     1.3909     2.5200 C.ar    
   2 C2             0.5896     1.2136     3.6656 C.ar    
   3 C3             1.8675     0.7019     3.5537 C.ar    
   4 N4             2.3671     0.3823     2.3753 N.ar    
   5 C5             1.6707     0.5368     1.2610 C.ar    
   6 C6             0.3788     1.0456     1.2987 C.ar    
   7 O7             2.2239     0.1955     0.0702 O.3     
   8 C8             3.5204    -0.2140     0.0626 C.ar    
   9 C9             3.8575    -1.4558     0.5879 C.ar    
  10 C10            5.1704    -1.8812     0.5857 C.ar    
  11 C11            6.1651    -1.0696     0.0576 C.ar    
  12 C12            5.8311     0.1853    -0.4748 C.ar    
  13 C13            4.4984     0.6041    -0.4728 C.ar    
  14 N14            7.4904    -1.4991     0.0564 N.am    
  15 C15            7.9147    -2.3734    -0.8774 C.2     
  16 C16            8.4229    -1.0003     1.0703 C.3     
  17 O17            9.0639    -2.7698    -0.8615 O.2     
  18 C18            6.9840    -2.8497    -1.9194 C.ar    
  19 C19            5.8547    -2.0963    -2.2494 C.ar    
  20 C20            4.9898    -2.5460    -3.2234 C.ar    
  21 C21            5.2365    -3.7434    -3.8762 C.ar    
  22 C22            6.3520    -4.4962    -3.5563 C.ar    
  23 C23            7.2316    -4.0547    -2.5852 C.ar    
  24 C24            7.7105     0.0198     1.9606 C.3     
  25 C25            8.9172    -2.1677     1.9269 C.3     
  26 C26            0.0301     1.5760     5.0171 C.3     
  27 O27            9.7979    -2.9860     1.1545 O.3     
  28 C28           10.3189    -4.1110     1.8650 C.3     
  29 N29           -0.6542     0.4103     5.5924 N.3     
  30 Br30           4.0421    -4.3512    -5.2102 Br      
  31 O31            7.3641     1.1690     1.1852 O.3     
  32 C32            6.6903     2.1885     1.9260 C.3     
  33 F33            8.3211    -4.7900    -2.2728 F       
  34 C34           -1.0052     0.6470     6.9985 C.3     
  35 C35           -1.8411    -0.5235     7.5210 C.3     
  36 C36           -1.0358    -1.8190     7.3877 C.3     
  37 C37           -0.6415    -2.0171     5.9215 C.3     
  38 C38            0.1596    -0.8032     5.4453 C.3     
  39 F39            0.1413    -3.1702     5.8000 F       
  40 F40           -1.7952    -2.1505     5.1415 F       
  41 C41            6.8801     1.0544    -1.0373 C.2     
  42 O42            8.0188     0.6432    -1.1412 O.2     
  43 O43            6.5764     2.3052    -1.4364 O.3     
  44 C44           -0.4108     1.2194     0.0270 C.3     
  45 F45           -1.6720     1.7442     0.3292 F       
  46 F46            0.2669     2.0965    -0.8266 F       
  47 F47           -0.5605    -0.0211    -0.6022 F       
  48 H48           -1.1772     1.7851     2.5806 H       
  49 H49            2.4655     0.5620     4.4421 H       
  50 H50            3.0879    -2.0913     1.0005 H       
  51 H51            5.4246    -2.8473     0.9960 H       
  52 H52            4.2336     1.5684    -0.8807 H       
  53 H53            9.2722    -0.5243     0.5801 H       
  54 H54            5.6597    -1.1632    -1.7418 H       
  55 H55            4.1168    -1.9637    -3.4787 H       
  56 H56            6.5381    -5.4286    -4.0685 H       
  57 H57            6.8056    -0.4268     2.3727 H       
  58 H58            8.3722     0.3166     2.7744 H       
  59 H59            9.4493    -1.7809     2.7960 H       
  60 H60            8.0653    -2.7620     2.2574 H       
  61 H61            0.8423     1.8824     5.6764 H       
  62 H62           -0.6791     2.3966     4.9086 H       
  63 H63           10.8802    -3.7645     2.7328 H       
  64 H64            9.4962    -4.7457     2.1942 H       
  65 H65           10.9779    -4.6810     1.2101 H       
  66 H66            6.4620     3.0260     1.2667 H       
  67 H67            5.7642     1.7869     2.3373 H       
  68 H68            7.3308     2.5303     2.7390 H       
  69 H69           -0.0942     0.7355     7.5903 H       
  70 H70           -1.5812     1.5690     7.0788 H       
  71 H71           -2.0883    -0.3549     8.5692 H       
  72 H72           -2.7589    -0.6040     6.9385 H       
  73 H73           -0.1371    -1.7540     8.0010 H       
  74 H74           -1.6435    -2.6613     7.7185 H       
  75 H75            0.4297    -0.9346     4.3975 H       
  76 H76            1.0652    -0.7080     6.0444 H       
  77 H77            7.2976     2.8377    -1.7988 H       
@<TRIPOS>BOND
   1    1    2 ar
   2    1    6 ar
   3    1   48 1
   4    2    3 ar
   5    2   26 1
   6    3    4 ar
   7    3   49 1
   8    4    5 ar
   9    5    6 ar
  10    5    7 1
  11    6   44 1
  12    7    8 1
  13    8    9 ar
  14    8   13 ar
  15    9   10 ar
  16    9   50 1
  17   10   11 ar
  18   10   51 1
  19   11   12 ar
  20   11   14 1
  21   12   13 ar
  22   12   41 1
  23   13   52 1
  24   14   15 am
  25   14   16 1
  26   15   17 2
  27   15   18 1
  28   16   24 1
  29   16   25 1
  30   16   53 1
  31   18   19 ar
  32   18   23 ar
  33   19   20 ar
  34   19   54 1
  35   20   21 ar
  36   20   55 1
  37   21   22 ar
  38   21   30 1
  39   22   23 ar
  40   22   56 1
  41   23   33 1
  42   24   31 1
  43   24   57 1
  44   24   58 1
  45   25   27 1
  46   25   59 1
  47   25   60 1
  48   26   29 1
  49   26   61 1
  50   26   62 1
  51   27   28 1
  52   28   63 1
  53   28   64 1
  54   28   65 1
  55   29   34 1
  56   29   38 1
  57   31   32 1
  58   32   66 1
  59   32   67 1
  60   32   68 1
  61   34   35 1
  62   34   69 1
  63   34   70 1
  64   35   36 1
  65   35   71 1
  66   35   72 1
  67   36   37 1
  68   36   73 1
  69   36   74 1
  70   37   38 1
  71   37   39 1
  72   37   40 1
  73   38   75 1
  74   38   76 1
  75   41   42 2
  76   41   43 1
  77   43   77 1
  78   44   45 1
  79   44   46 1
  80   44   47 1

#	End of record

