#	Name: ASD03331599
#	Creating user name:	WinNT
#	Creation time:	15. 06. 2019 20:39

#	Modifying user name:	WinNT
#	Modification time:	15. 06. 2019 20:39

#	Program:	/corina/corina34_cracker 3.40 0067  02.08.2006

@<TRIPOS>MOLECULE
ASD03331599
  63   65    0    0    0
SMALL
NO_CHARGES


@<TRIPOS>ATOM
   1 C1            -0.9506     0.2004     1.9704 C.ar    
   2 C2            -0.4520    -1.1079     1.4944 C.2     
   3 N3            -1.2094    -2.2149     1.2694 N.pl3   
   4 C4            -0.3838    -3.1994     0.8409 C.2     
   5 C5             0.8734    -2.6886     0.8082 C.2     
   6 N6             0.7990    -1.3983     1.2108 N.2     
   7 C7             2.0952    -3.4061     0.4034 C.2     
   8 N8             3.2848    -2.7728     0.4185 N.am    
   9 C9            -2.6671    -2.3698     1.4448 C.3     
  10 C10           -2.8750    -3.4104     2.5571 C.3     
  11 C11           -2.6990    -4.8112     2.0238 C.3     
  12 N12           -1.3475    -5.2243     1.7103 N.3     
  13 C13           -0.8333    -4.6019     0.4749 C.3     
  14 C14           -0.5235     1.3801     1.3553 C.ar    
  15 C15           -0.9938     2.5993     1.8057 C.ar    
  16 C16           -1.8853     2.6517     2.8629 C.ar    
  17 C17           -2.3111     1.4848     3.4760 C.ar    
  18 C18           -1.8542     0.2617     3.0321 C.ar    
  19 O19            2.0301    -4.5697     0.0556 O.2     
  20 C20            4.4995    -3.4861     0.0160 C.3     
  21 C21           -1.2467    -6.6883     1.6436 C.3     
  22 C22           -3.2627    -5.7857     3.0598 C.3     
  23 C23            4.6493    -3.4201    -1.5052 C.3     
  24 C24            5.6977    -2.8447     0.6671 C.2     
  25 C25            4.7381    -1.9577    -1.9459 C.3     
  26 C26            5.9225    -4.1575    -1.9247 C.3     
  27 C27            3.4369    -4.0792    -2.1661 C.3     
  28 N28            6.8703    -3.5069     0.7212 N.am    
  29 O29            5.6068    -1.7326     1.1423 O.2     
  30 C30            8.0049    -2.9294     1.4461 C.3     
  31 Cl31          -2.4720     4.1864     3.4235 Cl      
  32 F32            0.3472     1.3292     0.3235 F       
  33 H33            3.3367    -1.8448     0.6959 H       
  34 H34           -3.1099    -1.4179     1.7381 H       
  35 H35           -3.1184    -2.7213     0.5170 H       
  36 H36           -2.1494    -3.2357     3.3515 H       
  37 H37           -3.8813    -3.3053     2.9626 H       
  38 H38           -3.2981    -4.9044     1.1180 H       
  39 H39           -1.6229    -4.5558    -0.2750 H       
  40 H40            0.0111    -5.1755     0.0929 H       
  41 H41           -0.6648     3.5125     1.3321 H       
  42 H42           -3.0064     1.5328     4.3010 H       
  43 H43           -2.1876    -0.6467     3.5116 H       
  44 H44            4.4298    -4.5278     0.3294 H       
  45 H45           -1.9951    -7.0729     0.9507 H       
  46 H46           -0.2522    -6.9685     1.2963 H       
  47 H47           -1.4178    -7.1098     2.6341 H       
  48 H48           -4.2848    -5.5003     3.3087 H       
  49 H49           -3.2571    -6.7955     2.6496 H       
  50 H50           -2.6478    -5.7555     3.9593 H       
  51 H51            5.6018    -1.4881    -1.4751 H       
  52 H52            4.8448    -1.9107    -3.0297 H       
  53 H53            3.8311    -1.4323    -1.6470 H       
  54 H54            5.8387    -5.2100    -1.6541 H       
  55 H55            6.0550    -4.0691    -3.0030 H       
  56 H56            6.7809    -3.7187    -1.4160 H       
  57 H57            2.5299    -3.5539    -1.8672 H       
  58 H58            3.5436    -4.0322    -3.2498 H       
  59 H59            3.3736    -5.1211    -1.8521 H       
  60 H60            6.9631    -4.3658     0.2801 H       
  61 H61            8.2659    -1.9673     1.0054 H       
  62 H62            7.7337    -2.7882     2.4923 H       
  63 H63            8.8592    -3.6031     1.3799 H       
@<TRIPOS>BOND
   1    1    2 1
   2    1   14 ar
   3    1   18 ar
   4    2    3 1
   5    2    6 2
   6    3    4 1
   7    3    9 1
   8    4    5 2
   9    4   13 1
  10    5    6 1
  11    5    7 1
  12    7    8 am
  13    7   19 2
  14    8   20 1
  15    8   33 1
  16    9   10 1
  17    9   34 1
  18    9   35 1
  19   10   11 1
  20   10   36 1
  21   10   37 1
  22   11   12 1
  23   11   22 1
  24   11   38 1
  25   12   13 1
  26   12   21 1
  27   13   39 1
  28   13   40 1
  29   14   15 ar
  30   14   32 1
  31   15   16 ar
  32   15   41 1
  33   16   17 ar
  34   16   31 1
  35   17   18 ar
  36   17   42 1
  37   18   43 1
  38   20   23 1
  39   20   24 1
  40   20   44 1
  41   21   45 1
  42   21   46 1
  43   21   47 1
  44   22   48 1
  45   22   49 1
  46   22   50 1
  47   23   25 1
  48   23   26 1
  49   23   27 1
  50   24   28 am
  51   24   29 2
  52   25   51 1
  53   25   52 1
  54   25   53 1
  55   26   54 1
  56   26   55 1
  57   26   56 1
  58   27   57 1
  59   27   58 1
  60   27   59 1
  61   28   30 1
  62   28   60 1
  63   30   61 1
  64   30   62 1
  65   30   63 1

#	End of record

