#	Name: ASD01940275
#	Creating user name:	WinNT
#	Creation time:	15. 06. 2019 20:12

#	Modifying user name:	WinNT
#	Modification time:	15. 06. 2019 20:12

#	Program:	/corina/corina34_cracker 3.40 0067  02.08.2006

@<TRIPOS>MOLECULE
ASD01940275
  36   38    0    0    0
SMALL
NO_CHARGES


@<TRIPOS>ATOM
   1 C1             0.2628     5.3895    -4.1872 C.3     
   2 C2             0.3080     5.0190    -5.6709 C.3     
   3 C3             1.0698     4.1740    -4.6479 C.3     
   4 S4             1.1878     6.8590    -3.6623 S.o2    
   5 O5             2.5798     6.6769    -3.8824 O.2     
   6 O6             0.5273     8.0427    -4.0888 O.2     
   7 N7             1.0340     6.8770    -2.0135 N.am    
   8 C8             1.6441     5.8789    -1.2420 C.ar    
   9 C9             1.1166     5.5382     0.0029 C.ar    
  10 C10            1.7248     4.5484     0.7628 C.ar    
  11 C11            2.8532     3.9025     0.2823 C.ar    
  12 C12            3.3750     4.2428    -0.9536 C.ar    
  13 C13            2.7699     5.2243    -1.7176 C.ar    
  14 F14            3.4449     2.9392     1.0219 F       
  15 F15            1.2176     4.2153     1.9698 F       
  16 N16           -0.0243     6.1938     0.4861 N.pl3   
  17 C17            0.1014     7.4172     1.1506 C.ar    
  18 C18           -1.0078     7.9992     1.7543 C.ar    
  19 C19           -0.8801     9.2085     2.4102 C.ar    
  20 C20            0.3503     9.8400     2.4664 C.ar    
  21 C21            1.4553     9.2630     1.8661 C.ar    
  22 C22            1.3353     8.0510     1.2141 C.ar    
  23 Cl23           0.5073    11.3594     3.2914 Cl      
  24 Cl24          -2.5513     7.2077     1.6834 Cl      
  25 H25           -0.6668     5.2021    -3.6498 H       
  26 H26           -0.5918     4.5878    -6.1097 H       
  27 H27            0.8936     5.6582    -6.3317 H       
  28 H28            2.1566     4.2573    -4.6356 H       
  29 H29            0.6711     3.1870    -4.4135 H       
  30 H30            0.5216     7.5784    -1.5819 H       
  31 H31            4.2545     3.7375    -1.3244 H       
  32 H32            3.1774     5.4840    -2.6835 H       
  33 H33           -0.9009     5.7985     0.3593 H       
  34 H34           -1.7411     9.6616     2.8791 H       
  35 H35            2.4138     9.7586     1.9111 H       
  36 H36            2.1995     7.5989     0.7502 H       
@<TRIPOS>BOND
   1    1    2 1
   2    1    3 1
   3    1    4 1
   4    1   25 1
   5    2    3 1
   6    2   26 1
   7    2   27 1
   8    3   28 1
   9    3   29 1
  10    4    5 2
  11    4    6 2
  12    4    7 am
  13    7    8 1
  14    7   30 1
  15    8    9 ar
  16    8   13 ar
  17    9   10 ar
  18    9   16 1
  19   10   11 ar
  20   10   15 1
  21   11   12 ar
  22   11   14 1
  23   12   13 ar
  24   12   31 1
  25   13   32 1
  26   16   17 1
  27   16   33 1
  28   17   18 ar
  29   17   22 ar
  30   18   19 ar
  31   18   24 1
  32   19   20 ar
  33   19   34 1
  34   20   21 ar
  35   20   23 1
  36   21   22 ar
  37   21   35 1
  38   22   36 1

#	End of record

