#	Name: ASD03430001
#	Creating user name:	WinNT
#	Creation time:	15. 06. 2019 20:40

#	Modifying user name:	WinNT
#	Modification time:	15. 06. 2019 20:40

#	Program:	/corina/corina34_cracker 3.40 0067  02.08.2006

@<TRIPOS>MOLECULE
ASD03430001
  47   52    0    0    0
SMALL
NO_CHARGES


@<TRIPOS>ATOM
   1 N1             0.3352     0.1431     0.7178 N.pl3   
   2 N2             0.5169    -1.2431     0.6787 N.2     
   3 C3             1.7827    -1.5253     0.5596 C.2     
   4 C4             2.5176    -0.2655     0.5130 C.ar    
   5 C5             3.8712     0.0676     0.3901 C.ar    
   6 C6             4.2522     1.3736     0.3801 C.ar    
   7 C7             3.3100     2.4025     0.5012 C.ar    
   8 C8             1.9656     2.0875     0.6159 C.ar    
   9 C9             1.5568     0.7584     0.6214 C.ar    
  10 O10            3.9155     3.6244     0.4986 O.3     
  11 C11            5.5953     2.0401     0.2421 C.3     
  12 C12            5.2353     3.5003    -0.0640 C.3     
  13 C13            7.6058     1.2928     1.0908 C.ar    
  14 C14            6.4253     1.9172     1.4853 C.ar    
  15 C15            6.4240     1.4295    -0.8514 C.2     
  16 N16            7.5740     1.0211    -0.2791 N.am    
  17 O17            6.1183     1.3243    -2.0204 O.2     
  18 C18            6.2304     2.2800     2.7993 C.ar    
  19 C19            7.2115     2.0268     3.7412 C.ar    
  20 C20            8.3884     1.4082     3.3605 C.ar    
  21 C21            8.5880     1.0417     2.0459 C.ar    
  22 C22            8.6638     0.3682    -1.0087 C.3     
  23 C23            9.5684     1.4163    -1.6041 C.ar    
  24 N24           10.1476     2.3008    -0.8163 N.ar    
  25 C25           10.9467     3.2356    -1.2927 C.ar    
  26 C26           11.2060     3.3208    -2.6473 C.ar    
  27 C27           10.6147     2.4077    -3.5073 C.ar    
  28 C28            9.7856     1.4357    -2.9690 C.ar    
  29 C29            9.1202     0.4205    -3.8621 C.3     
  30 F30            9.5499     0.6063    -5.1804 F       
  31 F31            9.4609    -0.8683    -3.4378 F       
  32 F32            7.7319     0.5811    -3.7972 F       
  33 H33           -0.5186     0.5967     0.7964 H       
  34 H34            2.2118    -2.5149     0.5053 H       
  35 H35            4.6135    -0.7121     0.3036 H       
  36 H36            1.2330     2.8765     0.7013 H       
  37 H37            5.2151     3.6762    -1.1396 H       
  38 H38            5.9305     4.1811     0.4272 H       
  39 H39            5.3107     2.7630     3.0948 H       
  40 H40            7.0585     2.3114     4.7718 H       
  41 H41            9.1547     1.2115     4.0958 H       
  42 H42            9.5092     0.5583     1.7560 H       
  43 H43            9.2352    -0.2585    -0.3240 H       
  44 H44            8.2489    -0.2489    -1.8057 H       
  45 H45           11.4033     3.9430    -0.6163 H       
  46 H46           11.8607     4.0891    -3.0315 H       
  47 H47           10.7989     2.4503    -4.5706 H       
@<TRIPOS>BOND
   1    1    2 1
   2    1    9 1
   3    1   33 1
   4    2    3 2
   5    3    4 1
   6    3   34 1
   7    4    5 ar
   8    4    9 ar
   9    5    6 ar
  10    5   35 1
  11    6    7 ar
  12    6   11 1
  13    7    8 ar
  14    7   10 1
  15    8    9 ar
  16    8   36 1
  17   10   12 1
  18   11   12 1
  19   11   14 1
  20   11   15 1
  21   12   37 1
  22   12   38 1
  23   13   14 ar
  24   13   16 1
  25   13   21 ar
  26   14   18 ar
  27   15   16 am
  28   15   17 2
  29   16   22 1
  30   18   19 ar
  31   18   39 1
  32   19   20 ar
  33   19   40 1
  34   20   21 ar
  35   20   41 1
  36   21   42 1
  37   22   23 1
  38   22   43 1
  39   22   44 1
  40   23   24 ar
  41   23   28 ar
  42   24   25 ar
  43   25   26 ar
  44   25   45 1
  45   26   27 ar
  46   26   46 1
  47   27   28 ar
  48   27   47 1
  49   28   29 1
  50   29   30 1
  51   29   31 1
  52   29   32 1

#	End of record

