#	Name: ASD00660018
#	Creating user name:	WinNT
#	Creation time:	15. 06. 2019 18:36

#	Modifying user name:	WinNT
#	Modification time:	15. 06. 2019 18:36

#	Program:	/corina/corina34_cracker 3.40 0067  02.08.2006

@<TRIPOS>MOLECULE
ASD00660018
  64   67    0    0    0
SMALL
NO_CHARGES


@<TRIPOS>ATOM
   1 C1             7.0314    -2.2455    -6.2084 C.ar    
   2 C2             6.6668    -3.3422    -5.4381 C.ar    
   3 C3             6.4705    -3.2174    -4.0816 C.ar    
   4 C4             6.6401    -1.9726    -3.4692 C.ar    
   5 C5             7.0118    -0.8586    -4.2564 C.ar    
   6 C6             7.2048    -1.0080    -5.6288 C.ar    
   7 N7             6.4563    -1.8078    -2.1382 N.2     
   8 C8             6.6148    -0.6410    -1.5638 C.2     
   9 N9             6.9728     0.4858    -2.2512 N.am    
  10 C10            7.1829     0.4379    -3.5870 C.2     
  11 C11            7.1229     1.6993    -1.5669 C.ar    
  12 O12            7.5023     1.4329    -4.2114 O.2     
  13 S13            6.3541    -0.5177     0.1744 S.3     
  14 C14            5.7601    -2.1916     0.5227 C.3     
  15 C15            6.8824    -3.1759     0.3167 C.2     
  16 N16            6.6056    -4.4609     0.0191 N.am    
  17 O17            8.0348    -2.8118     0.4188 O.2     
  18 C18            7.6890    -5.4323    -0.1846 C.3     
  19 C19            7.4900    -6.1157    -1.5411 C.3     
  20 C20            6.0849    -6.7193    -1.6024 C.3     
  21 C21            5.0434    -5.6064    -1.4647 C.3     
  22 C22            5.2147    -4.9185    -0.1019 C.3     
  23 C23            5.8975    -7.4219    -2.9223 C.2     
  24 N24            4.7285    -8.0320    -3.2009 N.am    
  25 O25            6.7986    -7.4383    -3.7339 O.2     
  26 C26            5.2733    -2.2690     1.9711 C.3     
  27 C27            4.0453    -1.3730     2.1450 C.3     
  28 C28            3.6248    -1.3639     3.6160 C.3     
  29 C29            2.3968    -0.4679     3.7899 C.3     
  30 C30            6.0090     2.3518    -1.0558 C.ar    
  31 C31            6.1595     3.5478    -0.3818 C.ar    
  32 C32            7.4192     4.0962    -0.2161 C.ar    
  33 C33            8.5310     3.4480    -0.7249 C.ar    
  34 C34            8.3864     2.2484    -1.3939 C.ar    
  35 Cl35           7.6051     5.6000     0.6312 Cl      
  36 H36            7.1848    -2.3650    -7.2708 H       
  37 H37            6.5352    -4.3050    -5.9096 H       
  38 H38            6.1864    -4.0773    -3.4932 H       
  39 H39            7.4892    -0.1594    -6.2334 H       
  40 H40            4.9373    -2.4326    -0.1505 H       
  41 H41            8.6492    -4.9165    -0.1727 H       
  42 H42            7.6635    -6.1797     0.6084 H       
  43 H43            7.6058    -5.3819    -2.3387 H       
  44 H44            8.2309    -6.9058    -1.6626 H       
  45 H45            5.9613    -7.4349    -0.7895 H       
  46 H46            5.1823    -4.8774    -2.2630 H       
  47 H47            4.0430    -6.0341    -1.5319 H       
  48 H48            4.9863    -5.6255     0.6956 H       
  49 H49            4.5428    -4.0625    -0.0376 H       
  50 H50            4.0077    -8.0188    -2.5518 H       
  51 H51            4.6078    -8.4842    -4.0505 H       
  52 H52            5.0085    -3.2988     2.2109 H       
  53 H53            6.0660    -1.9326     2.6393 H       
  54 H54            4.2885    -0.3581     1.8303 H       
  55 H55            3.2268    -1.7560     1.5355 H       
  56 H56            3.3816    -2.3787     3.9307 H       
  57 H57            4.4433    -0.9808     4.2255 H       
  58 H58            2.6400     0.5469     3.4753 H       
  59 H59            1.5783    -0.8510     3.1804 H       
  60 H60            2.0972    -0.4614     4.8379 H       
  61 H61            5.0256     1.9246    -1.1856 H       
  62 H62            5.2934     4.0557     0.0159 H       
  63 H63            9.5130     3.8783    -0.5949 H       
  64 H64            9.2544     1.7430    -1.7909 H       
@<TRIPOS>BOND
   1    1    2 ar
   2    1    6 ar
   3    1   36 1
   4    2    3 ar
   5    2   37 1
   6    3    4 ar
   7    3   38 1
   8    4    5 ar
   9    4    7 1
  10    5    6 ar
  11    5   10 1
  12    6   39 1
  13    7    8 2
  14    8    9 1
  15    8   13 1
  16    9   10 am
  17    9   11 1
  18   10   12 2
  19   11   30 ar
  20   11   34 ar
  21   13   14 1
  22   14   15 1
  23   14   26 1
  24   14   40 1
  25   15   16 am
  26   15   17 2
  27   16   18 1
  28   16   22 1
  29   18   19 1
  30   18   41 1
  31   18   42 1
  32   19   20 1
  33   19   43 1
  34   19   44 1
  35   20   21 1
  36   20   23 1
  37   20   45 1
  38   21   22 1
  39   21   46 1
  40   21   47 1
  41   22   48 1
  42   22   49 1
  43   23   24 am
  44   23   25 2
  45   24   50 1
  46   24   51 1
  47   26   27 1
  48   26   52 1
  49   26   53 1
  50   27   28 1
  51   27   54 1
  52   27   55 1
  53   28   29 1
  54   28   56 1
  55   28   57 1
  56   29   58 1
  57   29   59 1
  58   29   60 1
  59   30   31 ar
  60   30   61 1
  61   31   32 ar
  62   31   62 1
  63   32   33 ar
  64   32   35 1
  65   33   34 ar
  66   33   63 1
  67   34   64 1

#	End of record

