#	Name: ASD03490094
#	Creating user name:	WinNT
#	Creation time:	15. 06. 2019 20:42

#	Modifying user name:	WinNT
#	Modification time:	15. 06. 2019 20:42

#	Program:	/corina/corina34_cracker 3.40 0067  02.08.2006

@<TRIPOS>MOLECULE
ASD03490094
  50   52    0    0    0
SMALL
NO_CHARGES


@<TRIPOS>ATOM
   1 Cl1           10.7409     1.1572    -0.5762 Cl      
   2 C2             0.0354     2.4459    -0.8245 C.3     
   3 C3            -0.0737     0.9370    -0.5964 C.3     
   4 C4             0.5482     0.5791     0.7549 C.3     
   5 C5            -1.5473     0.5252    -0.6046 C.3     
   6 C6             0.6575     0.2087    -1.6946 C.2     
   7 C7             2.0450     0.0935    -1.8173 C.2     
   8 C8             2.3051    -0.6361    -2.9365 C.2     
   9 N9             3.5670    -0.9819    -3.4200 N.am    
  10 C10            4.6734    -0.5853    -2.7603 C.2     
  11 O11            4.5715     0.0739    -1.7437 O.2     
  12 N12            5.8926    -0.9194    -3.2275 N.am    
  13 C13            7.0422    -0.4267    -2.5988 C.ar    
  14 C14            7.0644    -0.2616    -1.2205 C.ar    
  15 C15            8.2002     0.2243    -0.6025 C.ar    
  16 C16            9.3152     0.5463    -1.3558 C.ar    
  17 C17            9.2957     0.3826    -2.7300 C.ar    
  18 C18           10.5118     0.7343    -3.5475 C.3     
  19 O19           10.2473     0.4802    -4.9286 O.3     
  20 C20           11.2489     0.7464    -5.8078 C.ar    
  21 C21           11.0695     0.5257    -7.1694 C.ar    
  22 C22           12.1198     0.8122    -8.0270 C.ar    
  23 C23           13.3017     1.3038    -7.5057 C.ar    
  24 N24           13.4394     1.5014    -6.2092 N.ar    
  25 C25           12.4630     1.2476    -5.3607 C.ar    
  26 C26            8.1645    -0.1077    -3.3521 C.ar    
  27 N27            1.1178    -0.9655    -3.4942 N.pl3   
  28 N28            0.1019    -0.4287    -2.6931 N.2     
  29 H29            1.0852     2.7393    -0.8186 H       
  30 H30           -0.4077     2.7009    -1.7872 H       
  31 H31           -0.4935     2.9727    -0.0302 H       
  32 H32            0.0194     1.1059     1.5492 H       
  33 H33            0.4705    -0.4959     0.9174 H       
  34 H34            1.5980     0.8725     0.7608 H       
  35 H35           -1.9904     0.7801    -1.5673 H       
  36 H36           -1.6250    -0.5498    -0.4421 H       
  37 H37           -2.0762     1.0520     0.1897 H       
  38 H38            2.7799     0.5094    -1.1440 H       
  39 H39            3.6483    -1.5077    -4.2311 H       
  40 H40            5.9735    -1.5012    -3.9994 H       
  41 H41            6.1943    -0.5125    -0.6320 H       
  42 H42            8.2179     0.3532     0.4697 H       
  43 H43           10.7486     1.7895    -3.4110 H       
  44 H44           11.3566     0.1274    -3.2217 H       
  45 H45           10.1348     0.1402    -7.5489 H       
  46 H46           12.0161     0.6527    -9.0901 H       
  47 H47           14.1236     1.5288    -8.1692 H       
  48 H48           12.6114     1.4269    -4.3061 H       
  49 H49            8.1512    -0.2392    -4.4240 H       
  50 H50            0.9920    -1.4851    -4.3036 H       
@<TRIPOS>BOND
   1    1   16 1
   2    2    3 1
   3    2   29 1
   4    2   30 1
   5    2   31 1
   6    3    4 1
   7    3    5 1
   8    3    6 1
   9    4   32 1
  10    4   33 1
  11    4   34 1
  12    5   35 1
  13    5   36 1
  14    5   37 1
  15    6    7 1
  16    6   28 2
  17    7    8 2
  18    7   38 1
  19    8    9 1
  20    8   27 1
  21    9   10 am
  22    9   39 1
  23   10   11 2
  24   10   12 am
  25   12   13 1
  26   12   40 1
  27   13   14 ar
  28   13   26 ar
  29   14   15 ar
  30   14   41 1
  31   15   16 ar
  32   15   42 1
  33   16   17 ar
  34   17   18 1
  35   17   26 ar
  36   18   19 1
  37   18   43 1
  38   18   44 1
  39   19   20 1
  40   20   21 ar
  41   20   25 ar
  42   21   22 ar
  43   21   45 1
  44   22   23 ar
  45   22   46 1
  46   23   24 ar
  47   23   47 1
  48   24   25 ar
  49   25   48 1
  50   26   49 1
  51   27   28 1
  52   27   50 1

#	End of record

