#	Name: ASD03730322
#	Creating user name:	WinNT
#	Creation time:	15. 06. 2019 20:44

#	Modifying user name:	WinNT
#	Modification time:	15. 06. 2019 20:44

#	Program:	/corina/corina34_cracker 3.40 0067  02.08.2006

@<TRIPOS>MOLECULE
ASD03730322
  59   64    0    0    0
SMALL
NO_CHARGES


@<TRIPOS>ATOM
   1 N1            -0.1658     0.9017    -1.1522 N.3     
   2 C2             0.0449    -0.5624    -1.0642 C.3     
   3 O3             1.4483    -0.7151    -1.3432 O.3     
   4 C4             2.0523     0.4482    -0.9620 C.ar    
   5 C5             1.0921     1.4514    -0.8378 C.ar    
   6 O6             5.0118     2.5070    -0.0502 O.3     
   7 C7             4.8878     3.7430     0.6787 C.3     
   8 C8             3.5148     4.2598     0.2288 C.3     
   9 C9             2.7983     3.0075    -0.2008 C.ar    
  10 C10            3.7690     2.0192    -0.3306 C.ar    
  11 C11            1.4719     2.7276    -0.4558 C.ar    
  12 C12            3.3826     0.7366    -0.7076 C.ar    
  13 N13            2.5385     6.2183     0.8878 N.am    
  14 C14            2.7958     4.9738     1.3372 C.2     
  15 C15            3.6256     5.2608    -0.8823 C.ar    
  16 C16            4.1750     5.2233    -2.1519 C.ar    
  17 C17            4.1124     6.3474    -2.9679 C.ar    
  18 C18            3.5014     7.4971    -2.5056 C.ar    
  19 C19            2.9549     7.5367    -1.2393 C.ar    
  20 C20            3.0121     6.4171    -0.4114 C.ar    
  21 O21            2.5036     4.5198     2.4232 O.2     
  22 N22            4.7920     4.0577    -2.6129 N.pl3   
  23 C23            5.3626     3.0066    -4.7162 C.ar    
  24 C24            5.4846     4.0670    -3.8266 C.ar    
  25 C25            6.3073     5.1395    -4.1629 C.ar    
  26 C26            6.9727     5.1029    -5.3774 C.ar    
  27 C27            6.8003     4.0124    -6.2093 C.ar    
  28 N28            6.0140     3.0122    -5.8617 N.ar    
  29 C29           -1.1882     1.3449    -0.1951 C.3     
  30 C30           -0.6401     1.2255     1.2284 C.3     
  31 C31           -1.7050     1.6871     2.2253 C.3     
  32 C32           -1.1569     1.5676     3.6488 C.3     
  33 C33           -2.2218     2.0293     4.6457 C.3     
  34 H34           -0.1893    -0.9247    -0.0631 H       
  35 H35           -0.5541    -1.0824    -1.8118 H       
  36 H36            4.8996     3.5612     1.7533 H       
  37 H37            5.6757     4.4404     0.3945 H       
  38 H38            0.7284     3.5047    -0.3579 H       
  39 H39            4.1265    -0.0406    -0.8021 H       
  40 H40            2.0782     6.8969     1.4061 H       
  41 H41            4.5401     6.3220    -3.9593 H       
  42 H42            3.4516     8.3704    -3.1392 H       
  43 H43            2.4799     8.4406    -0.8876 H       
  44 H44            4.7397     3.2421    -2.0906 H       
  45 H45            4.7312     2.1674    -4.4643 H       
  46 H46            6.4232     5.9791    -3.4935 H       
  47 H47            7.6185     5.9172    -5.6711 H       
  48 H48            7.3165     3.9792    -7.1573 H       
  49 H49           -1.4497     2.3835    -0.3977 H       
  50 H50           -2.0758     0.7204    -0.2963 H       
  51 H51           -0.3786     0.1869     1.4311 H       
  52 H52            0.2474     1.8500     1.3296 H       
  53 H53           -1.9665     2.7257     2.0226 H       
  54 H54           -2.5926     1.0626     2.1241 H       
  55 H55           -0.8954     0.5291     3.8514 H       
  56 H56           -0.2694     2.1922     3.7500 H       
  57 H57           -1.8313     1.9442     5.6598 H       
  58 H58           -2.4833     3.0679     4.4430 H       
  59 H59           -3.1094     1.4047     4.5445 H       
@<TRIPOS>BOND
   1    1    2 1
   2    1    5 1
   3    1   29 1
   4    2    3 1
   5    2   34 1
   6    2   35 1
   7    3    4 1
   8    4    5 ar
   9    4   12 ar
  10    5   11 ar
  11    6    7 1
  12    6   10 1
  13    7    8 1
  14    7   36 1
  15    7   37 1
  16    8    9 1
  17    8   14 1
  18    8   15 1
  19    9   10 ar
  20    9   11 ar
  21   10   12 ar
  22   11   38 1
  23   12   39 1
  24   13   14 am
  25   13   20 1
  26   13   40 1
  27   14   21 2
  28   15   16 ar
  29   15   20 ar
  30   16   17 ar
  31   16   22 1
  32   17   18 ar
  33   17   41 1
  34   18   19 ar
  35   18   42 1
  36   19   20 ar
  37   19   43 1
  38   22   24 1
  39   22   44 1
  40   23   24 ar
  41   23   28 ar
  42   23   45 1
  43   24   25 ar
  44   25   26 ar
  45   25   46 1
  46   26   27 ar
  47   26   47 1
  48   27   28 ar
  49   27   48 1
  50   29   30 1
  51   29   49 1
  52   29   50 1
  53   30   31 1
  54   30   51 1
  55   30   52 1
  56   31   32 1
  57   31   53 1
  58   31   54 1
  59   32   33 1
  60   32   55 1
  61   32   56 1
  62   33   57 1
  63   33   58 1
  64   33   59 1

#	End of record

