#	Name: ASD01812416
#	Creating user name:	WinNT
#	Creation time:	15. 06. 2019 19:28

#	Modifying user name:	WinNT
#	Modification time:	15. 06. 2019 19:28

#	Program:	/corina/corina34_cracker 3.40 0067  02.08.2006

@<TRIPOS>MOLECULE
ASD01812416
  70   74    0    0    0
SMALL
NO_CHARGES


@<TRIPOS>ATOM
   1 C1             1.5993    -2.7726     4.7721 C.3     
   2 C2             0.6245    -1.5938     4.8041 C.3     
   3 O3            -0.7173    -2.0855     4.8151 O.3     
   4 C4             0.8727    -0.7608     6.0632 C.3     
   5 C5            -0.1021     0.4181     6.0951 C.3     
   6 C6             0.1113     1.2901     4.8563 C.3     
   7 C7            -0.1369     0.4571     3.5972 C.3     
   8 C8             0.8379    -0.7217     3.5652 C.3     
   9 H9             0.6610    -1.3153     2.6682 H       
  10 N10            2.2134    -0.2177     3.5539 N.am    
  11 C11            2.7950     0.1277     2.3882 C.2     
  12 O12            2.2132    -0.0663     1.3369 O.2     
  13 C13            4.1287     0.7375     2.3865 C.2     
  14 C14            4.7597     1.0662     3.5996 C.2     
  15 C15            6.0016     1.6325     3.5729 C.2     
  16 C16            6.6939     1.9913     4.8625 C.3     
  17 N17            6.2512     3.3210     5.3025 N.3     
  18 C18            6.2579     4.2742     4.1854 C.3     
  19 C19            5.6557     5.6042     4.6444 C.3     
  20 C20            6.4767     6.1541     5.8140 C.3     
  21 C21            6.4940     5.1220     6.9450 C.3     
  22 C22            7.0720     3.8061     6.4194 C.3     
  23 C23            7.8544     6.4173     5.3672 C.1     
  24 N24            8.9175     6.6205     5.0223 N.1     
  25 C25            5.8534     7.4336     6.3093 C.ar    
  26 C26            6.2304     7.9469     7.5356 C.ar    
  27 C27            5.6512     9.1251     7.9820 C.ar    
  28 C28            4.7104     9.7451     7.1743 C.ar    
  29 C29            4.3834     9.1724     5.9595 C.ar    
  30 N30            4.9584     8.0534     5.5649 N.ar    
  31 C31            6.6329     1.8799     2.3462 C.2     
  32 C32            7.9111     2.4631     2.3294 C.2     
  33 C33            8.5230     2.7027     1.1341 C.2     
  34 C34            7.8670     2.3634    -0.0571 C.2     
  35 C35            6.6371     1.8029    -0.0209 C.2     
  36 N36            6.0157     1.5582     1.1679 N.am    
  37 C37            4.7913     0.9936     1.1696 C.2     
  38 O38            4.2532     0.7074     0.1133 O.2     
  39 H39            2.6227    -2.3976     4.7637 H       
  40 H40            1.4472    -3.3939     5.6547 H       
  41 H41            1.4224    -3.3661     3.8751 H       
  42 H42           -0.9240    -2.6474     5.5744 H       
  43 H43            0.7207    -1.3820     6.9457 H       
  44 H44            1.8962    -0.3858     6.0547 H       
  45 H45           -1.1255     0.0431     6.1036 H       
  46 H46            0.0748     1.0116     6.9921 H       
  47 H47           -0.5831     2.1299     4.8791 H       
  48 H48            1.1348     1.6651     4.8479 H       
  49 H49           -1.1604     0.0821     3.6056 H       
  50 H50            0.0151     1.0783     2.7146 H       
  51 H51            2.7057    -0.1327     4.3854 H       
  52 H52            4.2674     0.8732     4.5414 H       
  53 H53            6.4447     1.2543     5.6259 H       
  54 H54            7.7725     2.0010     4.7052 H       
  55 H55            7.2830     4.4356     3.8519 H       
  56 H56            5.6671     3.8730     3.3620 H       
  57 H57            5.6752     6.3164     3.8195 H       
  58 H58            4.6260     5.4460     4.9651 H       
  59 H59            7.1124     5.4898     7.7638 H       
  60 H60            5.4776     4.9563     7.3019 H       
  61 H61            7.0724     3.0648     7.2185 H       
  62 H62            8.0932     3.9696     6.0754 H       
  63 H63            6.9667     7.4367     8.1390 H       
  64 H64            5.9261     9.5494     8.9363 H       
  65 H65            4.2387    10.6638     7.4904 H       
  66 H66            3.6512     9.6490     5.3246 H       
  67 H67            8.4047     2.7198     3.2551 H       
  68 H68            9.5053     3.1507     1.1057 H       
  69 H69            8.3453     2.5506    -1.0071 H       
  70 H70            6.1407     1.5458    -0.9450 H       
@<TRIPOS>BOND
   1    1    2 1
   2    1   39 1
   3    1   40 1
   4    1   41 1
   5    2    8 1
   6    2    3 1
   7    2    4 1
   8    3   42 1
   9    4    5 1
  10    4   43 1
  11    4   44 1
  12    5    6 1
  13    5   45 1
  14    5   46 1
  15    6    7 1
  16    6   47 1
  17    6   48 1
  18    7    8 1
  19    7   49 1
  20    7   50 1
  21    8    9 1
  22    8   10 1
  23   10   11 am
  24   10   51 1
  25   11   12 2
  26   11   13 1
  27   13   37 1
  28   13   14 2
  29   14   15 1
  30   14   52 1
  31   15   16 1
  32   15   31 2
  33   16   17 1
  34   16   53 1
  35   16   54 1
  36   17   22 1
  37   17   18 1
  38   18   19 1
  39   18   55 1
  40   18   56 1
  41   19   20 1
  42   19   57 1
  43   19   58 1
  44   20   21 1
  45   20   23 1
  46   20   25 1
  47   21   22 1
  48   21   59 1
  49   21   60 1
  50   22   61 1
  51   22   62 1
  52   23   24 3
  53   25   30 ar
  54   25   26 ar
  55   26   27 ar
  56   26   63 1
  57   27   28 ar
  58   27   64 1
  59   28   29 ar
  60   28   65 1
  61   29   30 ar
  62   29   66 1
  63   31   36 1
  64   31   32 1
  65   32   33 2
  66   32   67 1
  67   33   34 1
  68   33   68 1
  69   34   35 2
  70   34   69 1
  71   35   36 1
  72   35   70 1
  73   36   37 am
  74   37   38 2

#	End of record

