#	Name: ASD01150309
#	Creating user name:	WinNT
#	Creation time:	15. 06. 2019 19:04

#	Modifying user name:	WinNT
#	Modification time:	15. 06. 2019 19:04

#	Program:	/corina/corina34_cracker 3.40 0067  02.08.2006

@<TRIPOS>MOLECULE
ASD01150309
  60   62    0    0    0
SMALL
NO_CHARGES


@<TRIPOS>ATOM
   1 N1            -0.0169     1.3926     0.0097 N.pl3   
   2 C2             0.0021    -0.0041     0.0020 C.2     
   3 C3            -1.3281    -0.4052     0.0131 C.2     
   4 N4            -2.0858     0.6950     0.0265 N.2     
   5 C5            -1.3234     1.7682     0.0302 C.2     
   6 C6             1.1390    -0.8369    -0.0142 C.2     
   7 C7             1.0965     2.2428     0.0036 C.ar    
   8 C8             1.3308     3.0745    -1.0833 C.ar    
   9 C9             2.4293     3.9117    -1.0863 C.ar    
  10 C10            3.2954     3.9221    -0.0084 C.ar    
  11 C11            3.0648     3.0950     1.0755 C.ar    
  12 C12            1.9648     2.2598     1.0870 C.ar    
  13 N13           -1.7777     3.0668     0.0432 N.3     
  14 C14           -3.2460     3.1108     0.0522 C.3     
  15 C15           -1.2218     3.8076     1.1836 C.3     
  16 O16            1.0070    -2.0475    -0.0193 O.2     
  17 O17            2.3748    -0.2923    -0.0240 O.3     
  18 C18            3.4818    -1.1958    -0.0402 C.3     
  19 C19            3.4079    -2.0704    -1.2934 C.3     
  20 C20            4.7889    -0.4008    -0.0494 C.3     
  21 C21            3.4336    -2.0838     1.2049 C.3     
  22 N22           -1.7882    -1.7164     0.0102 N.am    
  23 C23           -3.1126    -1.9660     0.0221 C.2     
  24 C24           -3.6014    -3.3595     0.0190 C.ar    
  25 O25           -3.9047    -1.0439     0.0353 O.2     
  26 C26           -2.6942    -4.4209     0.0038 C.ar    
  27 C27           -3.1569    -5.7198     0.0015 C.ar    
  28 C28           -4.5184    -5.9739     0.0142 C.ar    
  29 C29           -5.4241    -4.9271     0.0293 C.ar    
  30 C30           -4.9744    -3.6218     0.0371 C.ar    
  31 Cl31          -6.1110    -2.3098     0.0561 Cl      
  32 Br32          -5.1428    -7.7588     0.0103 Br      
  33 O33            5.8959    -1.3043    -0.0656 O.3     
  34 C34            7.1716    -0.6605    -0.0753 C.3     
  35 H35            0.6549     3.0666    -1.9256 H       
  36 H36            2.6123     4.5585    -1.9316 H       
  37 H37            4.1539     4.5773    -0.0132 H       
  38 H38            3.7432     3.1051     1.9158 H       
  39 H39            1.7850     1.6143     1.9340 H       
  40 H40           -3.6193     2.6010     0.9404 H       
  41 H41           -3.5783     4.1489     0.0625 H       
  42 H42           -3.6298     2.6153    -0.8395 H       
  43 H43           -0.1341     3.8185     1.1143 H       
  44 H44           -1.5971     4.8308     1.1699 H       
  45 H45           -1.5218     3.3229     2.1127 H       
  46 H46            3.4422    -1.4378    -2.1804 H       
  47 H47            4.2523    -2.7596    -1.3058 H       
  48 H48            2.4767    -2.6368    -1.2869 H       
  49 H49            4.8232     0.2318    -0.9364 H       
  50 H50            4.8415     0.2222     0.8435 H       
  51 H51            2.5024    -2.6502     1.2114 H       
  52 H52            4.2780    -2.7730     1.1925 H       
  53 H53            3.4862    -1.4607     2.0977 H       
  54 H54           -1.1561    -2.4522    -0.0004 H       
  55 H55           -1.6322    -4.2249    -0.0064 H       
  56 H56           -2.4558    -6.5413    -0.0106 H       
  57 H57           -6.4844    -5.1319     0.0388 H       
  58 H58            7.2553    -0.0333    -0.9628 H       
  59 H59            7.2736    -0.0428     0.8170 H       
  60 H60            7.9589    -1.4142    -0.0874 H       
@<TRIPOS>BOND
   1    1    2 1
   2    1    7 1
   3    1    5 1
   4    2    3 2
   5    2    6 1
   6    3    4 1
   7    3   22 1
   8    4    5 2
   9    5   13 1
  10    6   16 2
  11    6   17 1
  12    7    8 ar
  13    7   12 ar
  14    8    9 ar
  15    8   35 1
  16    9   10 ar
  17    9   36 1
  18   10   11 ar
  19   10   37 1
  20   11   12 ar
  21   11   38 1
  22   12   39 1
  23   13   14 1
  24   13   15 1
  25   14   40 1
  26   14   41 1
  27   14   42 1
  28   15   43 1
  29   15   44 1
  30   15   45 1
  31   17   18 1
  32   18   19 1
  33   18   20 1
  34   18   21 1
  35   19   46 1
  36   19   47 1
  37   19   48 1
  38   20   33 1
  39   20   49 1
  40   20   50 1
  41   21   51 1
  42   21   52 1
  43   21   53 1
  44   22   23 am
  45   22   54 1
  46   23   24 1
  47   23   25 2
  48   24   26 ar
  49   24   30 ar
  50   26   27 ar
  51   26   55 1
  52   27   28 ar
  53   27   56 1
  54   28   29 ar
  55   28   32 1
  56   29   30 ar
  57   29   57 1
  58   30   31 1
  59   33   34 1
  60   34   58 1
  61   34   59 1
  62   34   60 1

#	End of record

