#	Name: ASD02030551
#	Creating user name:	WinNT
#	Creation time:	15. 06. 2019 20:15

#	Modifying user name:	WinNT
#	Modification time:	15. 06. 2019 20:15

#	Program:	/corina/corina34_cracker 3.40 0067  02.08.2006

@<TRIPOS>MOLECULE
ASD02030551
  44   46    0    0    0
SMALL
NO_CHARGES


@<TRIPOS>ATOM
   1 C1            -0.0167     1.3790     0.0096 C.ar    
   2 C2             0.0021    -0.0041     0.0020 C.ar    
   3 C3             1.2117    -0.6794    -0.0131 C.ar    
   4 C4             2.3998     0.0314    -0.0206 C.ar    
   5 C5             2.3781     1.4132    -0.0130 C.ar    
   6 C6             1.1706     2.0865     0.0021 C.ar    
   7 S7             1.1454     3.8483     0.0118 S.o2    
   8 O8             2.3840     4.2704    -0.5423 O.2     
   9 O9            -0.1151     4.2345    -0.5186 O.2     
  10 N10            1.1535     4.3300     1.5961 N.am    
  11 C11            2.3156     4.0466     2.4420 C.3     
  12 C12            2.2431     4.8847     3.6923 C.ar    
  13 C13            2.6418     6.8606     4.7771 C.ar    
  14 N14            2.7036     6.1229     3.6829 N.ar    
  15 C15            1.6877     4.3555     4.8488 C.ar    
  16 N16            1.6222     5.0845     5.9445 N.ar    
  17 C17            2.0894     6.3301     5.9419 C.ar    
  18 C18            2.0181     7.1528     7.1718 C.2     
  19 O19            2.4415     8.2918     7.1663 O.2     
  20 N20            1.4836     6.6380     8.2969 N.am    
  21 C21            1.4131     7.4516     9.5132 C.3     
  22 C22            0.7779     6.6483    10.6187 C.2     
  23 S23           -0.9443     6.5653    10.9818 S.3     
  24 C24            1.4206     5.8686    11.4933 C.2     
  25 N25            0.6387     5.2680    12.3676 N.2     
  26 C26           -0.6281     5.4960    12.2780 C.2     
  27 C27           -1.6775     4.9025    13.1821 C.3     
  28 Cl28          -1.4890    -0.8931     0.0120 Cl      
  29 F29            1.2319    -2.0302    -0.0201 F       
  30 H30           -0.9593     1.9061     0.0169 H       
  31 H31            3.3434    -0.4939    -0.0321 H       
  32 H32            3.3050     1.9674    -0.0185 H       
  33 H33            0.3887     4.7998     1.9642 H       
  34 H34            2.3195     2.9906     2.7121 H       
  35 H35            3.2287     4.2856     1.8968 H       
  36 H36            3.0188     7.8726     4.7693 H       
  37 H37            1.3082     3.3444     4.8506 H       
  38 H38            1.1457     5.7288     8.3013 H       
  39 H39            2.4190     7.7477     9.8110 H       
  40 H40            0.8143     8.3418     9.3206 H       
  41 H41            2.4930     5.7411    11.4842 H       
  42 H42           -2.0266     3.9588    12.7631 H       
  43 H43           -1.2491     4.7256    14.1687 H       
  44 H44           -2.5158     5.5938    13.2687 H       
@<TRIPOS>BOND
   1    1    2 ar
   2    1    6 ar
   3    1   30 1
   4    2    3 ar
   5    2   28 1
   6    3    4 ar
   7    3   29 1
   8    4    5 ar
   9    4   31 1
  10    5    6 ar
  11    5   32 1
  12    6    7 1
  13    7    8 2
  14    7    9 2
  15    7   10 am
  16   10   11 1
  17   10   33 1
  18   11   12 1
  19   11   34 1
  20   11   35 1
  21   12   15 ar
  22   12   14 ar
  23   13   14 ar
  24   13   17 ar
  25   13   36 1
  26   15   16 ar
  27   15   37 1
  28   16   17 ar
  29   17   18 1
  30   18   19 2
  31   18   20 am
  32   20   21 1
  33   20   38 1
  34   21   22 1
  35   21   39 1
  36   21   40 1
  37   22   24 2
  38   22   23 1
  39   23   26 1
  40   24   25 1
  41   24   41 1
  42   25   26 2
  43   26   27 1
  44   27   42 1
  45   27   43 1
  46   27   44 1

#	End of record

