#	Name: ASD01916892
#	Creating user name:	WinNT
#	Creation time:	15. 06. 2019 20:08

#	Modifying user name:	WinNT
#	Modification time:	15. 06. 2019 20:08

#	Program:	/corina/corina34_cracker 3.40 0067  02.08.2006

@<TRIPOS>MOLECULE
ASD01916892
  56   60    0    0    0
SMALL
NO_CHARGES


@<TRIPOS>ATOM
   1 C1            -0.0089     1.3007     0.0489 C.2     
   2 N2            -0.0163     0.0149    -0.2298 N.2     
   3 N3            -1.3538    -0.4093    -0.1725 N.pl3   
   4 C4            -2.0897     0.6889     0.1485 C.2     
   5 N5            -1.2614     1.7053     0.2828 N.2     
   6 C6             1.1979     2.1629     0.1014 C.ar    
   7 C7             2.4555     1.6219    -0.1574 C.ar    
   8 C8             1.0767     3.5175     0.4039 C.ar    
   9 C9             2.2023     4.3149     0.4509 C.ar    
  10 C10            3.4490     3.7715     0.1983 C.ar    
  11 C11           -1.8565    -1.7646    -0.4108 C.3     
  12 C12           -1.8839    -2.5261     0.8893 C.2     
  13 N13           -2.3134    -3.8034     0.9132 N.am    
  14 O14           -1.5193    -1.9897     1.9141 O.2     
  15 C15           -2.3482    -4.5647     2.1711 C.3     
  16 C16           -3.7421    -5.1815     2.3285 C.3     
  17 N17           -4.0701    -5.9562     1.1243 N.3     
  18 C18           -4.1375    -5.0932    -0.0626 C.3     
  19 C19           -2.7656    -4.4709    -0.3169 C.3     
  20 C20           -5.2497    -6.6602     1.2934 C.ar    
  21 N21           -5.6991    -7.4166     0.3028 N.ar    
  22 C22           -6.8230    -8.1021     0.4319 C.ar    
  23 C23           -7.5313    -8.0218     1.6205 C.ar    
  24 C24           -7.0327    -7.2211     2.6361 C.ar    
  25 N25           -5.8999    -6.5658     2.4440 N.ar    
  26 C26           -3.5520     0.7329     0.3216 C.2     
  27 C27            3.5745     2.4284    -0.1077 C.ar    
  28 C28           -4.2514     1.8375     0.5330 C.2     
  29 C29           -5.7237     1.5232     0.6637 C.3     
  30 C30           -5.7818     0.0001     0.9213 C.3     
  31 C31           -4.4584    -0.4752     0.2755 C.3     
  32 H32            2.5546     0.5733    -0.3960 H       
  33 H33            0.1038     3.9429     0.6009 H       
  34 H34            2.1095     5.3652     0.6850 H       
  35 H35            4.3272     4.3990     0.2362 H       
  36 H36           -2.8647    -1.7111    -0.8218 H       
  37 H37           -1.2027    -2.2756    -1.1176 H       
  38 H38           -1.5990    -5.3559     2.1411 H       
  39 H39           -2.1464    -3.8972     3.0089 H       
  40 H40           -3.7530    -5.8387     3.1980 H       
  41 H41           -4.4778    -4.3883     2.4623 H       
  42 H42           -4.4352    -5.6865    -0.9272 H       
  43 H43           -4.8677    -4.3014     0.1045 H       
  44 H44           -2.8378    -3.7430    -1.1250 H       
  45 H45           -2.0537    -5.2513    -0.5858 H       
  46 H46           -7.1845    -8.7167    -0.3793 H       
  47 H47           -8.4520    -8.5708     1.7523 H       
  48 H48           -7.5607    -7.1365     3.5745 H       
  49 H49            4.5503     2.0091    -0.3036 H       
  50 H50           -3.8271     2.8282     0.6031 H       
  51 H51           -6.1545     2.0669     1.5046 H       
  52 H52           -6.2482     1.7723    -0.2588 H       
  53 H53           -5.7983    -0.2148     1.9897 H       
  54 H54           -6.6405    -0.4479     0.4212 H       
  55 H55           -4.6299    -0.7884    -0.7544 H       
  56 H56           -4.0258    -1.2915     0.8540 H       
@<TRIPOS>BOND
   1    1    2 2
   2    1    6 1
   3    1    5 1
   4    2    3 1
   5    3    4 1
   6    3   11 1
   7    4    5 2
   8    4   26 1
   9    6    7 ar
  10    6    8 ar
  11    7   27 ar
  12    7   32 1
  13    8    9 ar
  14    8   33 1
  15    9   10 ar
  16    9   34 1
  17   10   27 ar
  18   10   35 1
  19   11   12 1
  20   11   36 1
  21   11   37 1
  22   12   13 am
  23   12   14 2
  24   13   15 1
  25   13   19 1
  26   15   16 1
  27   15   38 1
  28   15   39 1
  29   16   17 1
  30   16   40 1
  31   16   41 1
  32   17   18 1
  33   17   20 1
  34   18   19 1
  35   18   42 1
  36   18   43 1
  37   19   44 1
  38   19   45 1
  39   20   21 ar
  40   20   25 ar
  41   21   22 ar
  42   22   23 ar
  43   22   46 1
  44   23   24 ar
  45   23   47 1
  46   24   25 ar
  47   24   48 1
  48   26   28 2
  49   26   31 1
  50   27   49 1
  51   28   29 1
  52   28   50 1
  53   29   30 1
  54   29   51 1
  55   29   52 1
  56   30   31 1
  57   30   53 1
  58   30   54 1
  59   31   55 1
  60   31   56 1

#	End of record

