#	Name: ASD05300025
#	Creating user name:	WinNT
#	Creation time:	15. 06. 2019 20:58

#	Modifying user name:	WinNT
#	Modification time:	15. 06. 2019 20:58

#	Program:	/corina/corina34_cracker 3.40 0067  02.08.2006

@<TRIPOS>MOLECULE
ASD05300025
  38   40    0    0    0
SMALL
NO_CHARGES


@<TRIPOS>ATOM
   1 N1            -0.0771     1.3591     0.0590 N.am    
   2 C2            -0.0374     0.0120     0.0413 C.2     
   3 O3             1.0302    -0.5633     0.0431 O.2     
   4 N4            -1.1842    -0.6957     0.0216 N.am    
   5 C5            -1.1463    -2.0459     0.0038 C.2     
   6 C6            -0.5928    -2.7096     0.9960 C.2     
   7 C7            -0.5993    -4.1826     0.9910 C.2     
   8 C8            -1.1636    -4.8346    -0.0032 C.2     
   9 C9            -1.7719    -4.0916    -1.1202 C.2     
  10 C10           -1.7468    -2.7759    -1.1260 C.2     
  11 C11           -2.2647    -2.0290    -2.2777 C.2     
  12 C12           -2.8845    -0.8961    -2.2055 C.2     
  13 C13           -3.2125    -0.1519    -0.9864 C.2     
  14 C14           -2.3756    -0.0560     0.0251 C.2     
  15 C15           -2.7293     0.7693     1.1987 C.2     
  16 C16           -3.8934     1.3752     1.2591 C.2     
  17 C17           -4.8512     1.2295     0.1495 C.2     
  18 C18           -4.5324     0.5107    -0.9020 C.2     
  19 N19           -0.0240    -4.8661     2.0096 N.pl3   
  20 C20            0.7215    -4.1469     3.0456 C.3     
  21 C21           -0.1473    -6.3245     2.0750 C.3     
  22 H22            0.7482     1.8685     0.0732 H       
  23 H23           -0.9310     1.8193     0.0536 H       
  24 H24           -0.1333    -2.1744     1.8138 H       
  25 H25           -1.1804    -5.9145    -0.0003 H       
  26 H26           -2.2380    -4.6265    -1.9344 H       
  27 H27           -2.1180    -2.4570    -3.2583 H       
  28 H28           -3.1918    -0.4522    -3.1408 H       
  29 H29           -2.0266     0.8749     2.0120 H       
  30 H30           -4.1472     1.9774     2.1190 H       
  31 H31           -5.8165     1.7112     0.2010 H       
  32 H32           -5.2374     0.4062    -1.7134 H       
  33 H33            0.0450    -3.8709     3.8545 H       
  34 H34            1.5119    -4.7880     3.4358 H       
  35 H35            1.1621    -3.2466     2.6173 H       
  36 H36           -0.8114    -6.6688     1.2823 H       
  37 H37            0.8356    -6.7783     1.9483 H       
  38 H38           -0.5579    -6.6113     3.0432 H       
@<TRIPOS>BOND
   1    1    2 am
   2    1   22 1
   3    1   23 1
   4    2    3 2
   5    2    4 am
   6    4    5 1
   7    4   14 1
   8    5    6 2
   9    5   10 1
  10    6    7 1
  11    6   24 1
  12    7    8 2
  13    7   19 1
  14    8    9 1
  15    8   25 1
  16    9   10 2
  17    9   26 1
  18   10   11 1
  19   11   12 2
  20   11   27 1
  21   12   13 1
  22   12   28 1
  23   13   14 2
  24   13   18 1
  25   14   15 1
  26   15   16 2
  27   15   29 1
  28   16   17 1
  29   16   30 1
  30   17   18 2
  31   17   31 1
  32   18   32 1
  33   19   20 1
  34   19   21 1
  35   20   33 1
  36   20   34 1
  37   20   35 1
  38   21   36 1
  39   21   37 1
  40   21   38 1

#	End of record

