#	Name: ASD01915997
#	Creating user name:	WinNT
#	Creation time:	15. 06. 2019 20:06

#	Modifying user name:	WinNT
#	Modification time:	15. 06. 2019 20:06

#	Program:	/corina/corina34_cracker 3.40 0067  02.08.2006

@<TRIPOS>MOLECULE
ASD01915997
  40   41    0    0    0
SMALL
NO_CHARGES


@<TRIPOS>ATOM
   1 C1            -0.3216     1.8678    -0.9184 C.ar    
   2 C2            -0.1804     0.4738    -1.0099 C.ar    
   3 N3            -1.2353    -0.2893    -0.8047 N.ar    
   4 C4            -2.4156     0.2422    -0.5157 C.ar    
   5 C5            -3.5734    -0.6566    -0.2930 C.2     
   6 N6            -4.7434    -0.1521     0.1464 N.am    
   7 O7            -3.4675    -1.8481    -0.5067 O.2     
   8 C8            -5.9202    -1.0180     0.2538 C.3     
   9 C9            -5.5458    -2.4416    -0.1637 C.3     
  10 C10           -6.4179    -1.0251     1.7006 C.3     
  11 C11           -7.0260    -0.4918    -0.6634 C.3     
  12 C12            0.7967     2.7360    -1.1339 C.1     
  13 C13            1.7134     3.4477    -1.3106 C.1     
  14 C14            2.8317     4.3159    -1.5262 C.ar    
  15 C15            2.6830     5.7063    -1.4330 C.ar    
  16 N16            5.1184     4.5894    -2.0302 N.ar    
  17 C17            3.7961     6.5006    -1.6501 C.ar    
  18 C18            5.0081     5.9018    -1.9491 C.ar    
  19 Cl19           3.6732     8.2293    -1.5488 Cl      
  20 N20           -2.5916     1.5533    -0.4194 N.ar    
  21 C21           -1.5902     2.3876    -0.6155 C.ar    
  22 C22            4.0917     3.7909    -1.8273 C.ar    
  23 C23           -4.8384     1.2621     0.5166 C.3     
  24 H24            0.7774     0.0338    -1.2452 H       
  25 H25           -4.7580    -2.8165     0.4897 H       
  26 H26           -6.4214    -3.0858    -0.0838 H       
  27 H27           -5.1912    -2.4366    -1.1944 H       
  28 H28           -6.6847    -0.0109     1.9979 H       
  29 H29           -7.2935    -1.6693     1.7805 H       
  30 H30           -5.6301    -1.4000     2.3540 H       
  31 H31           -6.6715    -0.4868    -1.6941 H       
  32 H32           -7.9016    -1.1361    -0.5835 H       
  33 H33           -7.2928     0.5223    -0.3660 H       
  34 H34            1.7252     6.1466    -1.1985 H       
  35 H35            5.8769     6.5194    -2.1229 H       
  36 H36           -1.7411     3.4540    -0.5354 H       
  37 H37            4.2231     2.7213    -1.8982 H       
  38 H38           -5.0256     1.8595    -0.3757 H       
  39 H39           -5.6568     1.3985     1.2235 H       
  40 H40           -3.9034     1.5806     0.9775 H       
@<TRIPOS>BOND
   1    1    2 ar
   2    1   12 1
   3    1   21 ar
   4    2    3 ar
   5    2   24 1
   6    3    4 ar
   7    4   20 ar
   8    4    5 1
   9    5    6 am
  10    5    7 2
  11    6    8 1
  12    6   23 1
  13    8    9 1
  14    8   10 1
  15    8   11 1
  16    9   25 1
  17    9   26 1
  18    9   27 1
  19   10   28 1
  20   10   29 1
  21   10   30 1
  22   11   31 1
  23   11   32 1
  24   11   33 1
  25   12   13 3
  26   13   14 1
  27   14   15 ar
  28   14   22 ar
  29   15   17 ar
  30   15   34 1
  31   16   18 ar
  32   16   22 ar
  33   17   19 1
  34   17   18 ar
  35   18   35 1
  36   20   21 ar
  37   21   36 1
  38   22   37 1
  39   23   38 1
  40   23   39 1
  41   23   40 1

#	End of record

