#	Name: ASD01209387
#	Creating user name:	WinNT
#	Creation time:	15. 06. 2019 19:11

#	Modifying user name:	WinNT
#	Modification time:	15. 06. 2019 19:11

#	Program:	/corina/corina34_cracker 3.40 0067  02.08.2006

@<TRIPOS>MOLECULE
ASD01209387
  42   44    0    0    0
SMALL
NO_CHARGES


@<TRIPOS>ATOM
   1 C1             0.9665     1.5670    -1.4014 C.2     
   2 C2             0.7583     0.0818    -1.2534 C.3     
   3 O3             1.7500     2.1418    -0.6833 O.2     
   4 O4             0.2856     2.2505    -2.3347 O.3     
   5 S5             1.8190    -0.5478     0.0766 S.3     
   6 N6             2.6115    -3.0816    -0.4109 N.am    
   7 C7             1.4539    -2.3247     0.0832 C.3     
   8 C8             1.2210    -2.8037     1.4972 C.2     
   9 C9             2.1468    -3.7222     1.7542 C.2     
  10 C10            3.0093    -3.8998     0.5815 C.2     
  11 O11            3.9458    -4.6727     0.5152 O.2     
  12 C12            2.2886    -4.4693     3.0552 C.3     
  13 C13            0.1435    -2.3296     2.4381 C.3     
  14 C14            3.2175    -2.9714    -1.7402 C.3     
  15 O15            7.3862     0.8147    -1.5719 O.3     
  16 C16            8.5615    -0.0095    -1.6500 C.3     
  17 C17            8.0668    -1.3655    -1.0931 C.3     
  18 C18            6.5798    -1.2990    -1.3828 C.ar    
  19 C19            6.2787     0.0283    -1.6616 C.ar    
  20 C20            5.5980    -2.2642    -1.4051 C.ar    
  21 C21            4.2946    -1.9177    -1.7154 C.ar    
  22 C22            3.9840    -0.6014    -2.0021 C.ar    
  23 C23            4.9657     0.3678    -1.9773 C.ar    
  24 H24           -0.2856    -0.1163    -1.0103 H       
  25 H25            1.0143    -0.4159    -2.1887 H       
  26 H26            0.4526     3.2012    -2.3918 H       
  27 H27            0.5790    -2.5306    -0.5336 H       
  28 H28            1.6938    -5.3819     3.0168 H       
  29 H29            3.3361    -4.7247     3.2153 H       
  30 H30            1.9384    -3.8416     3.8747 H       
  31 H31           -0.7571    -2.9251     2.2888 H       
  32 H32            0.4855    -2.4397     3.4672 H       
  33 H33           -0.0772    -1.2809     2.2389 H       
  34 H34            3.6534    -3.9300    -2.0214 H       
  35 H35            2.4533    -2.6928    -2.4658 H       
  36 H36            8.8918    -0.1140    -2.6835 H       
  37 H37            9.3593     0.3957    -1.0276 H       
  38 H38            8.5304    -2.1971    -1.6238 H       
  39 H39            8.2521    -1.4374    -0.0214 H       
  40 H40            5.8451    -3.2914    -1.1810 H       
  41 H41            2.9677    -0.3304    -2.2471 H       
  42 H42            4.7145     1.3938    -2.2023 H       
@<TRIPOS>BOND
   1    1    2 1
   2    1    3 2
   3    1    4 1
   4    2    5 1
   5    2   24 1
   6    2   25 1
   7    4   26 1
   8    5    7 1
   9    6    7 1
  10    6   10 am
  11    6   14 1
  12    7    8 1
  13    7   27 1
  14    8    9 2
  15    8   13 1
  16    9   10 1
  17    9   12 1
  18   10   11 2
  19   12   28 1
  20   12   29 1
  21   12   30 1
  22   13   31 1
  23   13   32 1
  24   13   33 1
  25   14   21 1
  26   14   34 1
  27   14   35 1
  28   15   16 1
  29   15   19 1
  30   16   17 1
  31   16   36 1
  32   16   37 1
  33   17   18 1
  34   17   38 1
  35   17   39 1
  36   18   19 ar
  37   18   20 ar
  38   19   23 ar
  39   20   21 ar
  40   20   40 1
  41   21   22 ar
  42   22   23 ar
  43   22   41 1
  44   23   42 1

#	End of record

