#	Name: ASD01912457
#	Creating user name:	WinNT
#	Creation time:	15. 06. 2019 19:59

#	Modifying user name:	WinNT
#	Modification time:	15. 06. 2019 19:59

#	Program:	/corina/corina34_cracker 3.40 0067  02.08.2006

@<TRIPOS>MOLECULE
ASD01912457
  38   39    0    0    0
SMALL
NO_CHARGES


@<TRIPOS>ATOM
   1 N1            -0.0160     1.3258     0.0228 N.ar    
   2 C2             0.0017    -0.0034     0.0126 C.ar    
   3 C3             1.2290    -0.6823    -0.0097 C.ar    
   4 C4             2.3869     0.0729    -0.0203 C.ar    
   5 C5             2.2638     1.4632    -0.0082 C.ar    
   6 N6             1.0625     2.0217     0.0128 N.ar    
   7 C7            -1.2269    -0.7390     0.0249 C.1     
   8 C8            -2.2341    -1.3421     0.0350 C.1     
   9 C9            -3.4626    -2.0777     0.0472 C.ar    
  10 C10           -3.4445    -3.4750     0.0365 C.ar    
  11 C11           -4.6318    -4.1767     0.0484 C.ar    
  12 C12           -5.8389    -3.5004     0.0708 C.ar    
  13 C13           -5.8647    -2.1169     0.0811 C.ar    
  14 C14           -4.6855    -1.4018     0.0757 C.ar    
  15 N15            3.4043     2.2638    -0.0178 N.am    
  16 C16            3.2867     3.6032    -0.1112 C.2     
  17 C17            4.5104     4.4763    -0.0046 C.3     
  18 O18            2.1961     4.1058    -0.2811 O.2     
  19 C19            4.1029     5.9445    -0.1429 C.3     
  20 C20            5.1760     4.2577     1.3555 C.3     
  21 C21            5.4946     4.1131    -1.1183 C.3     
  22 H22            1.2681    -1.7616    -0.0179 H       
  23 H23            3.3582    -0.3990    -0.0371 H       
  24 H24           -2.5032    -4.0040     0.0187 H       
  25 H25           -4.6194    -5.2566     0.0398 H       
  26 H26           -6.7655    -4.0552     0.0801 H       
  27 H27           -6.8106    -1.5959     0.0982 H       
  28 H28           -4.7071    -0.3220     0.0837 H       
  29 H29            4.2829     1.8571     0.0427 H       
  30 H30            3.4017     6.2033     0.6505 H       
  31 H31            4.9880     6.5760    -0.0658 H       
  32 H32            3.6287     6.1003    -1.1119 H       
  33 H33            5.4663     3.2117     1.4541 H       
  34 H34            6.0610     4.8892     1.4327 H       
  35 H35            4.4748     4.5164     2.1489 H       
  36 H36            5.0205     4.2689    -2.0873 H       
  37 H37            6.3797     4.7446    -1.0412 H       
  38 H38            5.7849     3.0671    -1.0198 H       
@<TRIPOS>BOND
   1    1    2 ar
   2    1    6 ar
   3    2    3 ar
   4    2    7 1
   5    3    4 ar
   6    3   22 1
   7    4    5 ar
   8    4   23 1
   9    5    6 ar
  10    5   15 1
  11    7    8 3
  12    8    9 1
  13    9   10 ar
  14    9   14 ar
  15   10   11 ar
  16   10   24 1
  17   11   12 ar
  18   11   25 1
  19   12   13 ar
  20   12   26 1
  21   13   14 ar
  22   13   27 1
  23   14   28 1
  24   15   16 am
  25   15   29 1
  26   16   17 1
  27   16   18 2
  28   17   19 1
  29   17   20 1
  30   17   21 1
  31   19   30 1
  32   19   31 1
  33   19   32 1
  34   20   33 1
  35   20   34 1
  36   20   35 1
  37   21   36 1
  38   21   37 1
  39   21   38 1

#	End of record

