#	Name: ASD05940098
#	Creating user name:	WinNT
#	Creation time:	15. 06. 2019 21:04

#	Modifying user name:	WinNT
#	Modification time:	15. 06. 2019 21:04

#	Program:	/corina/corina34_cracker 3.40 0067  02.08.2006

@<TRIPOS>MOLECULE
ASD05940098
  54   58    0    0    0
SMALL
NO_CHARGES


@<TRIPOS>ATOM
   1 C1             2.4280     1.3716     0.6612 C.ar    
   2 C2             2.5345    -0.0046     0.6667 C.ar    
   3 C3             1.3057     1.9791     0.1132 C.ar    
   4 C4             0.2904     1.2020    -0.4287 C.ar    
   5 C5             0.3967    -0.1743    -0.4232 C.ar    
   6 C6             1.5192    -0.7819     0.1243 C.ar    
   7 N7             1.6274    -2.1776     0.1295 N.am    
   8 C8             1.1509    -2.8943    -0.9077 C.2     
   9 C9             1.3555    -4.3576    -0.9510 C.ar    
  10 O10            0.5528    -2.3373    -1.8077 O.2     
  11 N11            1.1978     3.3756     0.1076 N.am    
  12 C12            2.3024     4.1364    -0.0248 C.2     
  13 C13            2.2019     5.6361     0.0842 C.3     
  14 O14            3.3773     3.6140    -0.2317 O.2     
  15 C15            3.5885     6.2551    -0.1028 C.3     
  16 C16            3.4866     7.7776     0.0078 C.3     
  17 C17            2.5423     8.3055    -1.0741 C.3     
  18 C18            1.1556     7.6865    -0.8871 C.3     
  19 C19            1.2576     6.1640    -0.9978 C.3     
  20 C20            0.6112     8.0623     0.4925 C.3     
  21 C21            1.6575     6.0119     1.4638 C.3     
  22 C22            1.5555     7.5344     1.5744 C.3     
  23 C23            2.9422     8.1534     1.3874 C.3     
  24 C24            0.8633    -5.1028    -2.0238 C.ar    
  25 C25            2.0467    -4.9995     0.0780 C.ar    
  26 C26            2.2342    -6.3655     0.0314 C.ar    
  27 C27            1.7392    -7.0989    -1.0322 C.ar    
  28 C28            1.0577    -6.4682    -2.0580 C.ar    
  29 H29            3.2154     1.9759     1.0869 H       
  30 H30            3.4074    -0.4770     1.0925 H       
  31 H31           -0.5827     1.6744    -0.8541 H       
  32 H32           -0.3931    -0.7786    -0.8444 H       
  33 H33            2.0452    -2.6289     0.8796 H       
  34 H34            0.3280     3.7952     0.1991 H       
  35 H35            4.2613     5.8790     0.6680 H       
  36 H36            3.9764     5.9874    -1.0857 H       
  37 H37            4.4744     8.2186    -0.1254 H       
  38 H38            2.4696     9.3902    -0.9953 H       
  39 H39            2.9301     8.0378    -2.0570 H       
  40 H40            0.4829     8.0626    -1.6579 H       
  41 H41            1.6455     5.8963    -1.9806 H       
  42 H42            0.2698     5.7230    -0.8645 H       
  43 H43            0.5386     9.1470     0.5713 H       
  44 H44           -0.3766     7.6213     0.6257 H       
  45 H45            0.6696     5.5709     1.5970 H       
  46 H46            2.3302     5.6358     2.2346 H       
  47 H47            1.1677     7.8022     2.5573 H       
  48 H48            3.6149     7.7774     2.1583 H       
  49 H49            2.8695     9.2381     1.4663 H       
  50 H50            0.3312    -4.6117    -2.8250 H       
  51 H51            2.4343    -4.4280     0.9084 H       
  52 H52            2.7688    -6.8633     0.8268 H       
  53 H53            1.8892    -8.1680    -1.0642 H       
  54 H54            0.6735    -7.0466    -2.8852 H       
@<TRIPOS>BOND
   1    1    2 ar
   2    1    3 ar
   3    1   29 1
   4    2    6 ar
   5    2   30 1
   6    3    4 ar
   7    3   11 1
   8    4    5 ar
   9    4   31 1
  10    5    6 ar
  11    5   32 1
  12    6    7 1
  13    7    8 am
  14    7   33 1
  15    8    9 1
  16    8   10 2
  17    9   24 ar
  18    9   25 ar
  19   11   12 am
  20   11   34 1
  21   12   13 1
  22   12   14 2
  23   13   15 1
  24   13   21 1
  25   13   19 1
  26   15   16 1
  27   15   35 1
  28   15   36 1
  29   16   17 1
  30   16   23 1
  31   16   37 1
  32   17   18 1
  33   17   38 1
  34   17   39 1
  35   18   19 1
  36   18   20 1
  37   18   40 1
  38   19   41 1
  39   19   42 1
  40   20   22 1
  41   20   43 1
  42   20   44 1
  43   21   22 1
  44   21   45 1
  45   21   46 1
  46   22   23 1
  47   22   47 1
  48   23   48 1
  49   23   49 1
  50   24   28 ar
  51   24   50 1
  52   25   26 ar
  53   25   51 1
  54   26   27 ar
  55   26   52 1
  56   27   28 ar
  57   27   53 1
  58   28   54 1

#	End of record

