#	Name: ASD07301025
#	Creating user name:	WinNT
#	Creation time:	15. 06. 2019 21:10

#	Modifying user name:	WinNT
#	Modification time:	15. 06. 2019 21:10

#	Program:	/corina/corina34_cracker 3.40 0067  02.08.2006

@<TRIPOS>MOLECULE
ASD07301025
  27   27    0    0    0
SMALL
NO_CHARGES


@<TRIPOS>ATOM
   1 C1            -0.5382     0.5496     1.3000 C.3     
   2 C2             0.0024    -0.0038     0.0067 C.2     
   3 C3             1.3291    -0.6208    -0.0274 C.2     
   4 C4             1.4656    -2.0710     0.1150 C.2     
   5 C5             2.8317    -2.7063     0.0799 C.3     
   6 O6            -0.6623     0.0622    -1.0065 O.2     
   7 O7             0.4786    -2.7619     0.2614 O.2     
   8 N8             2.4057     0.1329    -0.1870 N.2     
   9 N9             2.2806     1.3963    -0.4155 N.pl3   
  10 C10            3.4083     2.1708    -0.6885 C.ar    
  11 C11            3.2748     3.5324    -0.9350 C.ar    
  12 C12            4.3923     4.2966    -1.2049 C.ar    
  13 C13            5.6459     3.7078    -1.2304 C.ar    
  14 C14            5.7817     2.3511    -0.9856 C.ar    
  15 C15            4.6681     1.5835    -0.7091 C.ar    
  16 F16            6.7380     4.4579    -1.4949 F       
  17 H17            0.1545     0.3222     2.1103 H       
  18 H18           -0.6533     1.6300     1.2129 H       
  19 H19           -1.5068     0.0970     1.5122 H       
  20 H20            3.2371    -2.7523     1.0907 H       
  21 H21            2.7530    -3.7148    -0.3262 H       
  22 H22            3.4930    -2.1114    -0.5501 H       
  23 H23            1.4023     1.8077    -0.3975 H       
  24 H24            2.2976     3.9919    -0.9156 H       
  25 H25            4.2891     5.3544    -1.3968 H       
  26 H26            6.7601     1.8943    -1.0068 H       
  27 H27            4.7750     0.5268    -0.5135 H       
@<TRIPOS>BOND
   1    1    2 1
   2    1   17 1
   3    1   18 1
   4    1   19 1
   5    2    3 1
   6    2    6 2
   7    3    4 1
   8    3    8 2
   9    4    5 1
  10    4    7 2
  11    5   20 1
  12    5   21 1
  13    5   22 1
  14    8    9 1
  15    9   10 1
  16    9   23 1
  17   10   11 ar
  18   10   15 ar
  19   11   12 ar
  20   11   24 1
  21   12   13 ar
  22   12   25 1
  23   13   14 ar
  24   13   16 1
  25   14   15 ar
  26   14   26 1
  27   15   27 1

#	End of record

