#	Name: ASD01917597
#	Creating user name:	WinNT
#	Creation time:	15. 06. 2019 20:09

#	Modifying user name:	WinNT
#	Modification time:	15. 06. 2019 20:09

#	Program:	/corina/corina34_cracker 3.40 0067  02.08.2006

@<TRIPOS>MOLECULE
ASD01917597
  33   33    0    0    0
SMALL
NO_CHARGES


@<TRIPOS>ATOM
   1 C1            -0.0172     1.5037     0.0053 C.2     
   2 C2             0.0036    -0.0032     0.0007 C.3     
   3 O3             1.0206     2.1222    -0.0077 O.2     
   4 O4            -1.1888     2.1586     0.0184 O.3     
   5 C5            -1.1329     3.6095     0.0221 C.3     
   6 C6            -2.5546     4.1747     0.0372 C.3     
   7 C7            -3.3067     3.6966    -1.2064 C.3     
   8 C8            -3.2831     3.6891     1.2920 C.3     
   9 C9            -2.4965     5.6806     0.0412 C.2     
  10 N10           -3.6368     6.3989     0.0541 N.am    
  11 O11           -1.4237     6.2461     0.0327 O.2     
  12 C12           -3.5847     7.7876     0.1666 C.ar    
  13 C13           -4.7559     8.5307     0.0709 C.ar    
  14 C14           -4.6903     9.9080     0.1843 C.ar    
  15 C15           -3.4497    10.4974     0.3905 C.ar    
  16 C16           -2.3270     9.6973     0.4756 C.ar    
  17 N17           -2.4216     8.3857     0.3690 N.ar    
  18 I18           -3.2829    12.5780     0.5700 I       
  19 H19            0.0233    -0.3695     1.0271 H       
  20 H20           -0.8885    -0.3773    -0.5016 H       
  21 H21            0.8911    -0.3527    -0.5269 H       
  22 H22           -0.5970     3.9502     0.9081 H       
  23 H23           -0.6138     3.9555    -0.8718 H       
  24 H24           -3.3487     2.6074    -1.2092 H       
  25 H25           -4.3196     4.0992    -1.1956 H       
  26 H26           -2.7877     4.0425    -2.1003 H       
  27 H27           -2.7473     4.0298     2.1780 H       
  28 H28           -4.2960     4.0918     1.3028 H       
  29 H29           -3.3251     2.6000     1.2891 H       
  30 H30           -4.4938     5.9497    -0.0149 H       
  31 H31           -5.7041     8.0395    -0.0902 H       
  32 H32           -5.5834    10.5112     0.1137 H       
  33 H33           -1.3600    10.1508     0.6359 H       
@<TRIPOS>BOND
   1    1    2 1
   2    1    3 2
   3    1    4 1
   4    2   19 1
   5    2   20 1
   6    2   21 1
   7    4    5 1
   8    5    6 1
   9    5   22 1
  10    5   23 1
  11    6    7 1
  12    6    8 1
  13    6    9 1
  14    7   24 1
  15    7   25 1
  16    7   26 1
  17    8   27 1
  18    8   28 1
  19    8   29 1
  20    9   10 am
  21    9   11 2
  22   10   12 1
  23   10   30 1
  24   12   13 ar
  25   12   17 ar
  26   13   14 ar
  27   13   31 1
  28   14   15 ar
  29   14   32 1
  30   15   16 ar
  31   15   18 1
  32   16   17 ar
  33   16   33 1

#	End of record

