#	Name: ASD01882193
#	Creating user name:	WinNT
#	Creation time:	15. 06. 2019 19:44

#	Modifying user name:	WinNT
#	Modification time:	15. 06. 2019 19:44

#	Program:	/corina/corina34_cracker 3.40 0067  02.08.2006

@<TRIPOS>MOLECULE
ASD01882193
  16   17    0    0    0
SMALL
NO_CHARGES


@<TRIPOS>ATOM
   1 C1            -0.0178     1.4615     0.0101 C.2     
   2 C2             0.0021    -0.0041     0.0020 C.2     
   3 C3             1.2362    -0.6460    -0.0132 C.2     
   4 C4             2.4066     0.1217    -0.0203 C.2     
   5 C5             2.3565     1.4705    -0.0125 C.2     
   6 N6             1.1718     2.1440     0.0024 N.pl3   
   7 N7            -0.9999     2.3434     0.0295 N.2     
   8 C8            -0.4827     3.5770     0.0282 C.2     
   9 C9             0.8637     3.4793     0.0125 C.2     
  10 C10           -1.2169    -0.7555     0.0101 C.1     
  11 N11           -2.1840    -1.3515     0.0165 N.1     
  12 I12            2.2264     5.0706     0.0090 I       
  13 Cl13           1.3236    -2.3798    -0.0228 Cl      
  14 H14            3.3662    -0.3737    -0.0317 H       
  15 H15            3.2797     2.0308    -0.0183 H       
  16 H16           -1.0477     4.4973     0.0416 H       
@<TRIPOS>BOND
   1    1    2 1
   2    1    6 1
   3    1    7 2
   4    2    3 2
   5    2   10 1
   6    3    4 1
   7    3   13 1
   8    4    5 2
   9    4   14 1
  10    5    6 1
  11    5   15 1
  12    6    9 1
  13    7    8 1
  14    8    9 2
  15    8   16 1
  16    9   12 1
  17   10   11 3

#	End of record

