#	Name: ASD07930413
#	Creating user name:	WinNT
#	Creation time:	15. 06. 2019 21:12

#	Modifying user name:	WinNT
#	Modification time:	15. 06. 2019 21:12

#	Program:	/corina/corina34_cracker 3.40 0067  02.08.2006

@<TRIPOS>MOLECULE
ASD07930413
  45   47    0    0    0
SMALL
NO_CHARGES


@<TRIPOS>ATOM
   1 N1             0.0006     1.2712     0.0037 N.2     
   2 N2            -1.1611    -0.7566     0.0076 N.pl3   
   3 C3            -1.3888    -1.7915    -1.0064 C.3     
   4 C4            -0.2711    -2.8399    -0.9193 C.3     
   5 S5             1.3268    -1.9884    -1.1092 S.o2    
   6 N6             1.2083    -0.7374    -0.0148 N.am    
   7 C7             0.0133    -0.0322    -0.0009 C.2     
   8 C8             2.3111    -0.3991     0.8883 C.3     
   9 C9            -1.3840    -1.1539    -2.3972 C.3     
  10 C10           -2.7200    -2.4534    -0.7598 C.ar    
  11 C11           -3.4610    -2.1182     0.3562 C.ar    
  12 C12           -4.6880    -2.7283     0.5827 C.ar    
  13 C13           -5.1669    -3.6741    -0.3139 C.ar    
  14 C14           -4.4225    -4.0064    -1.4290 C.ar    
  15 C15           -3.2020    -3.3932    -1.6557 C.ar    
  16 N16           -5.4405    -2.3904     1.7135 N.am    
  17 C17           -6.7863    -2.3665     1.6449 C.2     
  18 O18           -7.3442    -2.5428     0.5784 O.2     
  19 C19           -7.5813    -2.1270     2.8609 C.2     
  20 O20            2.3891    -2.7940    -0.6176 O.2     
  21 O21            1.4101    -1.3489    -2.3754 O.2     
  22 N22           -7.0347    -1.9256     4.0628 N.2     
  23 F23           -2.4756    -3.7193    -2.7471 F       
  24 C24           -7.8625    -1.7295     5.0278 C.2     
  25 S25           -9.4717    -1.7882     4.4591 S.3     
  26 C26           -8.9329    -2.0847     2.8641 C.2     
  27 F27           -7.3097    -0.1083     6.6709 F       
  28 F28           -8.4643    -1.9728     7.3109 F       
  29 C29           -7.4672    -1.4825     6.4609 C.3     
  30 F30           -6.2606    -2.1369     6.7313 F       
  31 H31            0.8358     1.7644    -0.0027 H       
  32 H32           -1.8367    -0.5789     0.6806 H       
  33 H33           -0.3092    -3.3379     0.0496 H       
  34 H34           -0.3931    -3.5741    -1.7155 H       
  35 H35            2.9602     0.3345     0.4103 H       
  36 H36            1.9095     0.0181     1.8117 H       
  37 H37            2.8840    -1.2983     1.1149 H       
  38 H38           -0.4200    -0.6773    -2.5751 H       
  39 H39           -1.5532    -1.9235    -3.1503 H       
  40 H40           -2.1753    -0.4067    -2.4571 H       
  41 H41           -3.0865    -1.3826     1.0525 H       
  42 H42           -6.1206    -4.1498    -0.1394 H       
  43 H43           -4.7945    -4.7423    -2.1265 H       
  44 H44           -4.9934    -2.1734     2.5465 H       
  45 H45           -9.5680    -2.2209     2.0013 H       
@<TRIPOS>BOND
   1    1    7 2
   2    1   31 1
   3    2    3 1
   4    2    7 1
   5    2   32 1
   6    3    4 1
   7    3    9 1
   8    3   10 1
   9    4    5 1
  10    4   33 1
  11    4   34 1
  12    5    6 am
  13    5   20 2
  14    5   21 2
  15    6    7 1
  16    6    8 1
  17    8   35 1
  18    8   36 1
  19    8   37 1
  20    9   38 1
  21    9   39 1
  22    9   40 1
  23   10   11 ar
  24   10   15 ar
  25   11   12 ar
  26   11   41 1
  27   12   13 ar
  28   12   16 1
  29   13   14 ar
  30   13   42 1
  31   14   15 ar
  32   14   43 1
  33   15   23 1
  34   16   17 am
  35   16   44 1
  36   17   18 2
  37   17   19 1
  38   19   22 1
  39   19   26 2
  40   22   24 2
  41   24   25 1
  42   24   29 1
  43   25   26 1
  44   26   45 1
  45   27   29 1
  46   28   29 1
  47   29   30 1

#	End of record

