#	Name: ASD02508173
#	Creating user name:	WinNT
#	Creation time:	15. 06. 2019 20:23

#	Modifying user name:	WinNT
#	Modification time:	15. 06. 2019 20:23

#	Program:	/corina/corina34_cracker 3.40 0067  02.08.2006

@<TRIPOS>MOLECULE
ASD02508173
  51   54    0    0    0
SMALL
NO_CHARGES


@<TRIPOS>ATOM
   1 C1            -0.0168     1.3911     0.0097 C.ar    
   2 C2             0.0021    -0.0041     0.0020 C.ar    
   3 C3            -1.1670    -0.7436     0.0096 C.ar    
   4 C4            -2.3892    -0.1001     0.0251 C.ar    
   5 C5            -2.4296     1.2837     0.0330 C.ar    
   6 C6            -1.2699     2.0227     0.0305 C.ar    
   7 S7            -3.8842    -1.0326     0.0343 S.o2    
   8 N8            -4.2848    -1.3010     1.6186 N.am    
   9 C9            -5.1428    -0.3518     2.3733 C.3     
  10 N10            1.2342     1.9813     0.0009 N.am    
  11 C11            2.3140     1.1938    -0.0136 C.2     
  12 S12            1.7082    -0.4709    -0.0168 S.3     
  13 O13           -4.8913    -0.1815    -0.4955 O.2     
  14 O14           -3.5687    -2.3022    -0.5204 O.2     
  15 C15            1.3727     3.4397     0.0069 C.3     
  16 O16            3.4782     1.5486    -0.0234 O.2     
  17 C17           -6.5118    -0.8539     2.4136 C.3     
  18 N18           -6.5201    -2.2392     2.9500 N.am    
  19 C19           -6.1838    -3.2839     2.0473 C.3     
  20 C20           -4.6874    -3.7346     2.1008 C.3     
  21 C21           -3.8278    -2.4526     2.3146 C.3     
  22 S22           -6.9038    -2.5521     4.5303 S.o2    
  23 C23           -8.6460    -2.8052     4.6037 C.ar    
  24 O24           -6.3032    -3.7998     4.8495 O.2     
  25 O25           -6.6413    -1.3561     5.2513 O.2     
  26 C26           -9.1687    -4.0764     4.4399 C.ar    
  27 C27          -10.5380    -4.2741     4.4978 C.ar    
  28 C28          -11.3827    -3.2028     4.7190 C.ar    
  29 C29          -10.8619    -1.9330     4.8822 C.ar    
  30 C30           -9.4925    -1.7339     4.8309 C.ar    
  31 F31           -8.9837    -0.4927     4.9910 F       
  32 F32           -8.3433    -5.1237     4.2232 F       
  33 H33           -1.1242    -1.8228     0.0030 H       
  34 H34           -3.3839     1.7892     0.0451 H       
  35 H35           -1.3241     3.1013     0.0371 H       
  36 H36           -4.7637    -0.2498     3.3902 H       
  37 H37           -5.1274     0.6208     1.8816 H       
  38 H38            1.4167     3.7963     1.0360 H       
  39 H39            2.2881     3.7199    -0.5141 H       
  40 H40            0.5162     3.8881    -0.4966 H       
  41 H41           -7.1147    -0.2124     3.0563 H       
  42 H42           -6.9286    -0.8523     1.4065 H       
  43 H43           -6.8121    -4.1467     2.2686 H       
  44 H44           -6.4075    -2.9499     1.0342 H       
  45 H45           -4.5376    -4.4259     2.9302 H       
  46 H46           -4.4108    -4.2146     1.1621 H       
  47 H47           -2.8079    -2.6636     1.9932 H       
  48 H48           -3.8091    -2.2235     3.3801 H       
  49 H49          -10.9461    -5.2658     4.3697 H       
  50 H50          -12.4505    -3.3579     4.7640 H       
  51 H51          -11.5230    -1.0965     5.0543 H       
@<TRIPOS>BOND
   1    1    2 ar
   2    1   10 1
   3    1    6 ar
   4    2    3 ar
   5    2   12 1
   6    3    4 ar
   7    3   33 1
   8    4    5 ar
   9    4    7 1
  10    5    6 ar
  11    5   34 1
  12    6   35 1
  13    7    8 am
  14    7   13 2
  15    7   14 2
  16    8    9 1
  17    8   21 1
  18    9   17 1
  19    9   36 1
  20    9   37 1
  21   10   11 am
  22   10   15 1
  23   11   12 1
  24   11   16 2
  25   15   38 1
  26   15   39 1
  27   15   40 1
  28   17   18 1
  29   17   41 1
  30   17   42 1
  31   18   19 1
  32   18   22 am
  33   19   20 1
  34   19   43 1
  35   19   44 1
  36   20   21 1
  37   20   45 1
  38   20   46 1
  39   21   47 1
  40   21   48 1
  41   22   23 1
  42   22   24 2
  43   22   25 2
  44   23   26 ar
  45   23   30 ar
  46   26   27 ar
  47   26   32 1
  48   27   28 ar
  49   27   49 1
  50   28   29 ar
  51   28   50 1
  52   29   30 ar
  53   29   51 1
  54   30   31 1

#	End of record

