#	Name: ASD01410101
#	Creating user name:	WinNT
#	Creation time:	15. 06. 2019 19:16

#	Modifying user name:	WinNT
#	Modification time:	15. 06. 2019 19:16

#	Program:	/corina/corina34_cracker 3.40 0067  02.08.2006

@<TRIPOS>MOLECULE
ASD01410101
  65   68    0    0    0
SMALL
NO_CHARGES


@<TRIPOS>ATOM
   1 C1            -0.0169     1.3986     0.0097 C.ar    
   2 C2             0.0021    -0.0041     0.0020 C.ar    
   3 C3            -1.1620    -0.7093     0.0093 C.ar    
   4 C4            -2.3915    -0.0346     0.0242 C.ar    
   5 C5            -2.4205     1.3756     0.0321 C.ar    
   6 C6            -1.2306     2.0852     0.0308 C.ar    
   7 C7            -3.7366    -0.4728     0.0342 C.2     
   8 C8            -4.5331     0.6294     0.0474 C.2     
   9 N9            -3.7464     1.7584     0.0463 N.pl3   
  10 C10           -5.9650     0.6171     0.0597 C.1     
  11 C11           -4.2036    -1.9056     0.0303 C.3     
  12 C12           -5.0358    -2.1742     1.2858 C.3     
  13 C13           -5.5099    -3.6289     1.2818 C.3     
  14 C14           -6.3652    -3.8831     0.0390 C.3     
  15 C15           -5.5330    -3.6145    -1.2165 C.3     
  16 C16           -5.0589    -2.1598    -1.2126 C.3     
  17 C17            1.2512     2.1499     0.0017 C.2     
  18 O18            2.4257     1.4892    -0.0131 O.3     
  19 C19           -4.2357     3.1392     0.0578 C.3     
  20 C20           -4.3915     3.6051     1.4825 C.2     
  21 N21           -4.8319     4.8528     1.7391 N.am    
  22 O22            1.2376     3.3650     0.0083 O.2     
  23 O23           -4.1204     2.8574     2.3981 O.2     
  24 C24           -4.9889     5.3214     3.1228 C.3     
  25 C25           -6.4143     5.8524     3.3048 C.3     
  26 C26           -6.6963     6.9190     2.2442 C.3     
  27 C27           -6.5871     6.2963     0.8504 C.3     
  28 C28           -5.1584     5.7722     0.6406 C.3     
  29 N29           -8.0508     7.4542     2.4364 N.3     
  30 C30           -8.3145     8.5640     1.5108 C.3     
  31 C31           -9.0601     6.3967     2.2915 C.3     
  32 C32           -7.1389     0.6069     0.0699 C.1     
  33 H33            0.9465    -0.5277    -0.0102 H       
  34 H34           -1.1389    -1.7891     0.0033 H       
  35 H35           -1.2430     3.1651     0.0371 H       
  36 H36           -3.3392    -2.5695     0.0184 H       
  37 H37           -4.4264    -1.9931     2.1712 H       
  38 H38           -5.9002    -1.5103     1.2976 H       
  39 H39           -4.6454    -4.2927     1.2700 H       
  40 H40           -6.1027    -3.8202     2.1762 H       
  41 H41           -6.7030    -4.9195     0.0361 H       
  42 H42           -7.2297    -3.2193     0.0508 H       
  43 H43           -4.6686    -4.2784    -1.2284 H       
  44 H44           -6.1424    -3.7957    -2.1020 H       
  45 H45           -5.9234    -1.4960    -1.2007 H       
  46 H46           -4.4661    -1.9685    -2.1070 H       
  47 H47            3.2308     2.0249    -0.0179 H       
  48 H48           -3.5225     3.7817    -0.4587 H       
  49 H49           -5.2002     3.1871    -0.4476 H       
  50 H50           -4.8167     4.4936     3.8107 H       
  51 H51           -4.2735     6.1193     3.3217 H       
  52 H52           -7.1246     5.0330     3.1947 H       
  53 H53           -6.5151     6.2910     4.2976 H       
  54 H54           -5.9702     7.7264     2.3390 H       
  55 H55           -7.2959     5.4727     0.7634 H       
  56 H56           -6.8110     7.0508     0.0963 H       
  57 H57           -4.4593     6.6084     0.6368 H       
  58 H58           -5.1001     5.2402    -0.3090 H       
  59 H59           -8.2208     8.2108     0.4839 H       
  60 H60           -9.3239     8.9415     1.6744 H       
  61 H61           -7.5947     9.3632     1.6873 H       
  62 H62           -8.8822     5.6203     3.0356 H       
  63 H63          -10.0537     6.8201     2.4386 H       
  64 H64           -8.9933     5.9650     1.2929 H       
  65 H65           -8.1889     0.5979     0.0789 H       
@<TRIPOS>BOND
   1    1    2 ar
   2    1   17 1
   3    1    6 ar
   4    2    3 ar
   5    2   33 1
   6    3    4 ar
   7    3   34 1
   8    4    5 ar
   9    4    7 1
  10    5    6 ar
  11    5    9 1
  12    6   35 1
  13    7    8 2
  14    7   11 1
  15    8    9 1
  16    8   10 1
  17    9   19 1
  18   10   32 3
  19   11   12 1
  20   11   16 1
  21   11   36 1
  22   12   13 1
  23   12   37 1
  24   12   38 1
  25   13   14 1
  26   13   39 1
  27   13   40 1
  28   14   15 1
  29   14   41 1
  30   14   42 1
  31   15   16 1
  32   15   43 1
  33   15   44 1
  34   16   45 1
  35   16   46 1
  36   17   18 1
  37   17   22 2
  38   18   47 1
  39   19   20 1
  40   19   48 1
  41   19   49 1
  42   20   21 am
  43   20   23 2
  44   21   24 1
  45   21   28 1
  46   24   25 1
  47   24   50 1
  48   24   51 1
  49   25   26 1
  50   25   52 1
  51   25   53 1
  52   26   27 1
  53   26   29 1
  54   26   54 1
  55   27   28 1
  56   27   55 1
  57   27   56 1
  58   28   57 1
  59   28   58 1
  60   29   30 1
  61   29   31 1
  62   30   59 1
  63   30   60 1
  64   30   61 1
  65   31   62 1
  66   31   63 1
  67   31   64 1
  68   32   65 1

#	End of record

