#	Name: ASD01910687
#	Creating user name:	WinNT
#	Creation time:	15. 06. 2019 19:56

#	Modifying user name:	WinNT
#	Modification time:	15. 06. 2019 19:56

#	Program:	/corina/corina34_cracker 3.40 0067  02.08.2006

@<TRIPOS>MOLECULE
ASD01910687
  49   52    0    0    0
SMALL
NO_CHARGES


@<TRIPOS>ATOM
   1 C1             0.0598     1.7633    -0.3705 C.ar    
   2 C2             0.0023     0.3765    -0.4007 C.ar    
   3 C3             1.1881    -0.3346    -0.3552 C.ar    
   4 C4             2.3909     0.3600    -0.2811 C.ar    
   5 N5             2.4041     1.6839    -0.2539 N.ar    
   6 C6             1.2889     2.3878    -0.2965 C.ar    
   7 N7             3.5899    -0.3418    -0.2347 N.3     
   8 C8             4.7345     0.5758    -0.1591 C.3     
   9 C9             6.0170    -0.2304     0.0722 C.3     
  10 N10            6.1149    -1.2621    -0.9715 N.am    
  11 C11            4.9522    -2.1334    -1.1999 C.3     
  12 C12            3.7117    -1.2523    -1.3811 C.3     
  13 C13            7.2404    -1.4055    -1.6989 C.2     
  14 C14            7.3646    -2.5262    -2.6556 C.ar    
  15 O15            8.1533    -0.6137    -1.5686 O.2     
  16 C16            7.9775    -2.3241    -3.8943 C.ar    
  17 C17            8.0950    -3.3691    -4.7900 C.ar    
  18 C18            7.6084    -4.6199    -4.4691 C.ar    
  19 C19            6.9924    -4.8374    -3.2319 C.ar    
  20 C20            6.8756    -3.7869    -2.3209 C.ar    
  21 C21            6.4872    -6.1355    -2.8996 C.1     
  22 C22            6.0731    -7.1998    -2.6272 C.1     
  23 C23            5.5680    -8.4979    -2.2949 C.2     
  24 C24            4.9461    -8.8621    -1.1339 C.2     
  25 N25            4.6320   -10.1575    -1.2268 N.2     
  26 C26            5.0239   -10.6229    -2.3831 C.2     
  27 N27            5.6072    -9.6274    -3.0855 N.pl3   
  28 C28            6.1811    -9.7302    -4.4295 C.3     
  29 H29           -0.8476     2.3478    -0.4090 H       
  30 H30           -0.9468    -0.1357    -0.4581 H       
  31 H31            1.1800    -1.4144    -0.3765 H       
  32 H32            1.3382     3.4664    -0.2723 H       
  33 H33            4.8176     1.1313    -1.0933 H       
  34 H34            4.5886     1.2720     0.6668 H       
  35 H35            6.8810     0.4316     0.0149 H       
  36 H36            5.9797    -0.7042     1.0531 H       
  37 H37            5.1123    -2.7296    -2.0982 H       
  38 H38            4.8126    -2.7902    -0.3412 H       
  39 H39            2.8240    -1.8819    -1.4414 H       
  40 H40            3.8090    -0.6713    -2.2982 H       
  41 H41            8.3605    -1.3479    -4.1527 H       
  42 H42            8.5697    -3.2063    -5.7463 H       
  43 H43            7.7029    -5.4323    -5.1744 H       
  44 H44            6.4015    -3.9485    -1.3641 H       
  45 H45            4.7448    -8.2176    -0.2909 H       
  46 H46            4.8979   -11.6398    -2.7244 H       
  47 H47            5.4126    -9.5101    -5.1705 H       
  48 H48            6.9987    -9.0165    -4.5310 H       
  49 H49            6.5590   -10.7404    -4.5869 H       
@<TRIPOS>BOND
   1    1    2 ar
   2    1    6 ar
   3    1   29 1
   4    2    3 ar
   5    2   30 1
   6    3    4 ar
   7    3   31 1
   8    4    5 ar
   9    4    7 1
  10    5    6 ar
  11    6   32 1
  12    7    8 1
  13    7   12 1
  14    8    9 1
  15    8   33 1
  16    8   34 1
  17    9   10 1
  18    9   35 1
  19    9   36 1
  20   10   11 1
  21   10   13 am
  22   11   12 1
  23   11   37 1
  24   11   38 1
  25   12   39 1
  26   12   40 1
  27   13   14 1
  28   13   15 2
  29   14   16 ar
  30   14   20 ar
  31   16   17 ar
  32   16   41 1
  33   17   18 ar
  34   17   42 1
  35   18   19 ar
  36   18   43 1
  37   19   20 ar
  38   19   21 1
  39   20   44 1
  40   21   22 3
  41   22   23 1
  42   23   24 2
  43   23   27 1
  44   24   25 1
  45   24   45 1
  46   25   26 2
  47   26   27 1
  48   26   46 1
  49   27   28 1
  50   28   47 1
  51   28   48 1
  52   28   49 1

#	End of record

