#	Name: ASD03570046
#	Creating user name:	WinNT
#	Creation time:	15. 06. 2019 20:43

#	Modifying user name:	WinNT
#	Modification time:	15. 06. 2019 20:43

#	Program:	/corina/corina34_cracker 3.40 0067  02.08.2006

@<TRIPOS>MOLECULE
ASD03570046
  65   69    0    0    0
SMALL
NO_CHARGES


@<TRIPOS>ATOM
   1 C1             1.8590    -2.1932    -3.6136 C.ar    
   2 C2             1.1138    -1.0694    -3.2832 C.ar    
   3 C3             1.6839     0.1933    -3.3861 C.ar    
   4 C4             2.9907     0.3266    -3.8170 C.ar    
   5 C5             3.7294    -0.7950    -4.1451 C.ar    
   6 C6             3.1640    -2.0531    -4.0435 C.ar    
   7 N7            -0.2113    -1.2084    -2.8470 N.pl3   
   8 C8            -0.6662    -2.1167    -1.9427 C.2     
   9 C9            -2.0039    -1.9169    -1.8006 C.2     
  10 C10           -2.3718    -0.8606    -2.6395 C.2     
  11 N11           -1.3021    -0.4327    -3.2602 N.2     
  12 C12           -3.7636    -0.3047    -2.7974 C.3     
  13 O13            0.0785    -3.0518    -1.3000 O.3     
  14 C14            1.2346    -2.6505    -0.7079 C.ar    
  15 C15            3.5900    -1.8314     0.4995 C.ar    
  16 C16            2.7449    -0.8996    -0.0747 C.ar    
  17 C17            1.5693    -1.3060    -0.6776 C.ar    
  18 C18            2.0831    -3.5892    -0.1249 C.ar    
  19 C19            3.2611    -3.1736     0.4782 C.ar    
  20 N20            1.7472    -4.9495    -0.1473 N.am    
  21 C21            2.7169    -5.8840    -0.0949 C.2     
  22 N22            2.4003    -7.1901    -0.1965 N.am    
  23 O23            3.8775    -5.5488     0.0440 O.2     
  24 C24            3.4131    -8.1552    -0.2279 C.ar    
  25 C25            3.1689    -9.4359     0.2502 C.ar    
  26 C26            4.6628    -7.8359    -0.7424 C.ar    
  27 C27            5.6604    -8.7906    -0.7719 C.ar    
  28 C28            5.4156   -10.0635    -0.2902 C.ar    
  29 C29            4.1707   -10.3862     0.2179 C.ar    
  30 C30            6.5061   -11.1031    -0.3248 C.3     
  31 C31            6.8042   -11.5771     1.0990 C.3     
  32 C32            7.9113   -12.6326     1.0638 C.3     
  33 C33            7.4557   -13.8215     0.2154 C.3     
  34 C34            7.1575   -13.3475    -1.2084 C.3     
  35 C35            6.0504   -12.2921    -1.1732 C.3     
  36 Cl36           0.7565     1.6020    -2.9747 Cl      
  37 H37            1.4199    -3.1764    -3.5304 H       
  38 H38            3.4348     1.3077    -3.8978 H       
  39 H39            4.7500    -0.6886    -4.4819 H       
  40 H40            3.7440    -2.9273    -4.3003 H       
  41 H41           -2.6650    -2.4756    -1.1547 H       
  42 H42           -3.9191     0.4962    -2.0747 H       
  43 H43           -3.8856     0.0880    -3.8068 H       
  44 H44           -4.4927    -1.0964    -2.6250 H       
  45 H45            4.5075    -1.5092     0.9694 H       
  46 H46            3.0060     0.1482    -0.0554 H       
  47 H47            0.9116    -0.5757    -1.1254 H       
  48 H48            3.9230    -3.8991     0.9275 H       
  49 H49            0.8168    -5.2185    -0.2004 H       
  50 H50            1.4703    -7.4612    -0.2479 H       
  51 H51            2.1968    -9.6885     0.6472 H       
  52 H52            4.8544    -6.8421    -1.1194 H       
  53 H53            6.6325    -8.5429    -1.1719 H       
  54 H54            3.9814   -11.3824     0.5896 H       
  55 H55            7.4069   -10.6704    -0.7599 H       
  56 H56            7.1288   -10.7301     1.7034 H       
  57 H57            5.9033   -12.0099     1.5340 H       
  58 H58            8.8122   -12.1998     0.6288 H       
  59 H59            8.1237   -12.9703     2.0782 H       
  60 H60            8.2444   -14.5734     0.1904 H       
  61 H61            6.5548   -14.2543     0.6504 H       
  62 H62            8.0584   -12.9148    -1.6434 H       
  63 H63            6.8329   -14.1945    -1.8128 H       
  64 H64            5.1496   -12.7248    -0.7382 H       
  65 H65            5.8380   -11.9544    -2.1876 H       
@<TRIPOS>BOND
   1    1    2 ar
   2    1    6 ar
   3    1   37 1
   4    2    3 ar
   5    2    7 1
   6    3    4 ar
   7    3   36 1
   8    4    5 ar
   9    4   38 1
  10    5    6 ar
  11    5   39 1
  12    6   40 1
  13    7    8 1
  14    7   11 1
  15    8    9 2
  16    8   13 1
  17    9   10 1
  18    9   41 1
  19   10   11 2
  20   10   12 1
  21   12   42 1
  22   12   43 1
  23   12   44 1
  24   13   14 1
  25   14   18 ar
  26   14   17 ar
  27   15   16 ar
  28   15   19 ar
  29   15   45 1
  30   16   17 ar
  31   16   46 1
  32   17   47 1
  33   18   19 ar
  34   18   20 1
  35   19   48 1
  36   20   21 am
  37   20   49 1
  38   21   22 am
  39   21   23 2
  40   22   24 1
  41   22   50 1
  42   24   26 ar
  43   24   25 ar
  44   25   29 ar
  45   25   51 1
  46   26   27 ar
  47   26   52 1
  48   27   28 ar
  49   27   53 1
  50   28   29 ar
  51   28   30 1
  52   29   54 1
  53   30   31 1
  54   30   35 1
  55   30   55 1
  56   31   32 1
  57   31   56 1
  58   31   57 1
  59   32   33 1
  60   32   58 1
  61   32   59 1
  62   33   34 1
  63   33   60 1
  64   33   61 1
  65   34   35 1
  66   34   62 1
  67   34   63 1
  68   35   64 1
  69   35   65 1

#	End of record

