#	Name: ASD01881966
#	Creating user name:	WinNT
#	Creation time:	15. 06. 2019 19:43

#	Modifying user name:	WinNT
#	Modification time:	15. 06. 2019 19:43

#	Program:	/corina/corina34_cracker 3.40 0067  02.08.2006

@<TRIPOS>MOLECULE
ASD01881966
  55   58    0    0    0
SMALL
NO_CHARGES


@<TRIPOS>ATOM
   1 N1            -0.0154     1.2839     0.0091 N.pl3   
   2 N2             0.0021    -0.0041     0.0020 N.2     
   3 N3             1.2033    -0.4649    -0.0119 N.2     
   4 C4             2.0741     0.5645    -0.0147 C.ar    
   5 C5             1.2843     1.7298    -0.0009 C.ar    
   6 C6             3.4670     0.6759    -0.0271 C.ar    
   7 C7             4.0484     1.9285    -0.0255 C.ar    
   8 C8             3.2560     3.0739    -0.0118 C.ar    
   9 C9             1.8924     2.9784    -0.0004 C.ar    
  10 O10            5.4033     2.0444    -0.0370 O.3     
  11 C11            5.9411     3.3683    -0.0346 C.3     
  12 C12            7.4694     3.2979    -0.0487 C.3     
  13 C13            8.0453     4.7154    -0.0462 C.3     
  14 N14            9.5127     4.6478    -0.0597 N.3     
  15 C15           10.0984     5.9736    -0.2958 C.3     
  16 C16           11.6205     5.8920    -0.1590 C.3     
  17 C17           12.1661     4.8841    -1.1744 C.3     
  18 C18           11.5042     3.5238    -0.9376 C.3     
  19 C19            9.9856     3.6740    -1.0519 C.3     
  20 C20           11.8519     5.3657    -2.5922 C.3     
  21 C21           13.6806     4.7529    -1.0014 C.3     
  22 C22           -1.2133     2.1272     0.0196 C.3     
  23 C23           -1.6228     2.4135     1.4657 C.3     
  24 C24           -2.7884     3.3784     1.6921 C.3     
  25 C25           -2.9777     1.8797     1.9352 C.3     
  26 Br26           4.5472    -0.8761    -0.0451 Br      
  27 H27            3.7236     4.0474    -0.0103 H       
  28 H28            1.2882     3.8735     0.0099 H       
  29 H29            5.5939     3.9031    -0.9187 H       
  30 H30            5.6098     3.8935     0.8612 H       
  31 H31            7.8167     2.7631     0.8353 H       
  32 H32            7.8008     2.7728    -0.9445 H       
  33 H33            7.6981     5.2502    -0.9302 H       
  34 H34            7.7140     5.2406     0.8496 H       
  35 H35            9.8416     6.3104    -1.3002 H       
  36 H36            9.7054     6.6798     0.4355 H       
  37 H37           12.0561     6.8728    -0.3497 H       
  38 H38           11.8784     5.5685     0.8495 H       
  39 H39           11.8568     2.8126    -1.6846 H       
  40 H40           11.7603     3.1630     0.0586 H       
  41 H41            9.5105     2.7101    -0.8697 H       
  42 H42            9.7293     4.0216    -2.0527 H       
  43 H43           12.3187     6.3366    -2.7580 H       
  44 H44           12.2406     4.6477    -3.3143 H       
  45 H45           10.7725     5.4559    -2.7145 H       
  46 H46           13.9024     4.4071     0.0082 H       
  47 H47           14.0680     4.0353    -1.7246 H       
  48 H48           14.1503     5.7229    -1.1646 H       
  49 H49           -1.0007     3.0667    -0.4906 H       
  50 H50           -2.0254     1.6113    -0.4926 H       
  51 H51           -0.8089     2.4286     2.1906 H       
  52 H52           -2.7415     4.0280     2.5661 H       
  53 H53           -3.2635     3.8093     0.8108 H       
  54 H54           -3.5773     1.3246     1.2137 H       
  55 H55           -3.0553     1.5434     2.9691 H       
@<TRIPOS>BOND
   1    1    2 1
   2    1    5 1
   3    1   22 1
   4    2    3 2
   5    3    4 1
   6    4    5 ar
   7    4    6 ar
   8    5    9 ar
   9    6    7 ar
  10    6   26 1
  11    7    8 ar
  12    7   10 1
  13    8    9 ar
  14    8   27 1
  15    9   28 1
  16   10   11 1
  17   11   12 1
  18   11   29 1
  19   11   30 1
  20   12   13 1
  21   12   31 1
  22   12   32 1
  23   13   14 1
  24   13   33 1
  25   13   34 1
  26   14   15 1
  27   14   19 1
  28   15   16 1
  29   15   35 1
  30   15   36 1
  31   16   17 1
  32   16   37 1
  33   16   38 1
  34   17   18 1
  35   17   20 1
  36   17   21 1
  37   18   19 1
  38   18   39 1
  39   18   40 1
  40   19   41 1
  41   19   42 1
  42   20   43 1
  43   20   44 1
  44   20   45 1
  45   21   46 1
  46   21   47 1
  47   21   48 1
  48   22   23 1
  49   22   49 1
  50   22   50 1
  51   23   24 1
  52   23   25 1
  53   23   51 1
  54   24   25 1
  55   24   52 1
  56   24   53 1
  57   25   54 1
  58   25   55 1

#	End of record

