#	Name: ASD01120270
#	Creating user name:	WinNT
#	Creation time:	15. 06. 2019 18:59

#	Modifying user name:	WinNT
#	Modification time:	15. 06. 2019 18:59

#	Program:	/corina/corina34_cracker 3.40 0067  02.08.2006

@<TRIPOS>MOLECULE
ASD01120270
  41   43    0    0    0
SMALL
NO_CHARGES


@<TRIPOS>ATOM
   1 C1            -2.8632     1.7841    -0.4577 C.3     
   2 O2            -2.9061     0.4324     0.0040 O.3     
   3 C3            -2.7364    -0.5431    -0.9268 C.ar    
   4 C4            -2.5329    -0.2056    -2.2572 C.ar    
   5 C5            -2.3603    -1.1971    -3.2043 C.ar    
   6 C6            -2.3895    -2.5264    -2.8293 C.ar    
   7 C7            -2.5928    -2.8693    -1.4997 C.ar    
   8 C8            -2.7609    -1.8764    -0.5470 C.ar    
   9 O9            -2.6223    -4.1772    -1.1315 O.3     
  10 C10           -3.8341    -4.7192    -0.8942 C.2     
  11 O11           -4.8314    -4.0258    -0.9483 O.2     
  12 C12           -3.9493    -6.1472    -0.5705 C.2     
  13 C13           -5.1104    -6.8062    -0.3131 C.2     
  14 C14           -4.7886    -8.1591    -0.0492 C.ar    
  15 C15           -3.3893    -8.2781    -0.1601 C.ar    
  16 N16           -2.8954    -7.0369    -0.4846 N.pl3   
  17 C17           -1.4832    -6.7094    -0.6961 C.3     
  18 C18           -1.1662    -6.7609    -2.1920 C.3     
  19 C19           -2.7892    -9.5165     0.0516 C.ar    
  20 C20           -3.5661   -10.6087     0.3659 C.ar    
  21 C21           -4.9461   -10.4888     0.4747 C.ar    
  22 C22           -5.5571    -9.2857     0.2725 C.ar    
  23 N23           -1.3202    -9.6585    -0.0616 N.pl3   
  24 O24           -0.7370    -9.2028    -1.0289 O.2     
  25 O25           -0.6945   -10.2310     0.8127 O.2     
  26 H26           -3.0119     2.4604     0.3841 H       
  27 H27           -1.8936     1.9812    -0.9151 H       
  28 H28           -3.6512     1.9417    -1.1941 H       
  29 H29           -2.5097     0.8329    -2.5529 H       
  30 H30           -2.2027    -0.9324    -4.2394 H       
  31 H31           -2.2543    -3.2995    -3.5712 H       
  32 H32           -2.9188    -2.1411     0.4881 H       
  33 H33           -6.1005    -6.3748    -0.3105 H       
  34 H34           -1.2817    -5.7077    -0.3163 H       
  35 H35           -0.8599    -7.4306    -0.1675 H       
  36 H36           -1.7895    -6.0397    -2.7206 H       
  37 H37           -0.1155    -6.5172    -2.3493 H       
  38 H38           -1.3677    -7.7626    -2.5718 H       
  39 H39           -3.0983   -11.5684     0.5293 H       
  40 H40           -5.5407   -11.3559     0.7217 H       
  41 H41           -6.6303    -9.2021     0.3597 H       
@<TRIPOS>BOND
   1    1    2 1
   2    1   26 1
   3    1   27 1
   4    1   28 1
   5    2    3 1
   6    3    4 ar
   7    3    8 ar
   8    4    5 ar
   9    4   29 1
  10    5    6 ar
  11    5   30 1
  12    6    7 ar
  13    6   31 1
  14    7    8 ar
  15    7    9 1
  16    8   32 1
  17    9   10 1
  18   10   11 2
  19   10   12 1
  20   12   13 2
  21   12   16 1
  22   13   14 1
  23   13   33 1
  24   14   15 ar
  25   14   22 ar
  26   15   16 1
  27   15   19 ar
  28   16   17 1
  29   17   18 1
  30   17   34 1
  31   17   35 1
  32   18   36 1
  33   18   37 1
  34   18   38 1
  35   19   20 ar
  36   19   23 1
  37   20   21 ar
  38   20   39 1
  39   21   22 ar
  40   21   40 1
  41   22   41 1
  42   23   24 2
  43   23   25 2

#	End of record

