#	Name: ASD04230165
#	Creating user name:	WinNT
#	Creation time:	15. 06. 2019 20:48

#	Modifying user name:	WinNT
#	Modification time:	15. 06. 2019 20:48

#	Program:	/corina/corina34_cracker 3.40 0067  02.08.2006

@<TRIPOS>MOLECULE
ASD04230165
  49   53    0    0    0
SMALL
NO_CHARGES


@<TRIPOS>ATOM
   1 C1            -0.0208     1.3734     0.0460 C.ar    
   2 C2            -0.0005    -0.0117     0.0365 C.ar    
   3 C3             1.1994    -0.6920     0.0153 C.ar    
   4 C4             2.3972     0.0231     0.0026 C.ar    
   5 C5             2.3781     1.4274     0.0115 C.ar    
   6 C6             1.1625     2.0963     0.0338 C.ar    
   7 C7             3.6996    -0.6609    -0.0207 C.2     
   8 C8             4.8013     0.0617     0.3000 C.2     
   9 C9             4.6577     1.5113     0.6842 C.3     
  10 O10            3.5543     2.1031    -0.0025 O.3     
  11 C11            6.1227    -0.5634     0.2736 C.2     
  12 N12            7.2158     0.1576     0.5930 N.am    
  13 O13            6.2357    -1.7350    -0.0368 O.2     
  14 C14            8.4647    -0.4658     0.6764 C.ar    
  15 C15            9.6103     0.2185     0.2891 C.ar    
  16 C16           10.8464    -0.3947     0.3697 C.ar    
  17 C17           10.9497    -1.6901     0.8354 C.ar    
  18 C18            9.8058    -2.3841     1.2266 C.ar    
  19 C19            8.5610    -1.7656     1.1512 C.ar    
  20 C20            9.9154    -3.7768     1.7274 C.2     
  21 C21           11.0751    -4.4575     1.9447 C.2     
  22 N22           10.7323    -5.6988     2.4026 N.pl3   
  23 C23            9.3627    -5.7482     2.4549 C.2     
  24 N24            8.8888    -4.5796     2.0495 N.2     
  25 C25           11.4776    -6.7806     2.7746 C.2     
  26 C26           10.8805    -7.9139     3.1987 C.2     
  27 C27            9.4796    -7.9956     3.2634 C.2     
  28 C28            8.7245    -6.9254     2.8970 C.2     
  29 O29            1.1317     3.4559     0.0426 O.3     
  30 C30           -0.1558     4.0755     0.0656 C.3     
  31 H31           -0.9666     1.8948     0.0585 H       
  32 H32           -0.9296    -0.5622     0.0462 H       
  33 H33            1.2115    -1.7719     0.0089 H       
  34 H34            3.7758    -1.7054    -0.2846 H       
  35 H35            4.4941     1.5846     1.7594 H       
  36 H36            5.5719     2.0452     0.4247 H       
  37 H37            7.1361     1.1089     0.7649 H       
  38 H38            9.5347     1.2320    -0.0763 H       
  39 H39           11.7339     0.1411     0.0671 H       
  40 H40           11.9172    -2.1662     0.8963 H       
  41 H41            7.6720    -2.2990     1.4535 H       
  42 H42           12.0767    -4.0865     1.7849 H       
  43 H43           12.5554    -6.7288     2.7288 H       
  44 H44           11.4824    -8.7623     3.4893 H       
  45 H45            9.0043    -8.9039     3.6034 H       
  46 H46            7.6467    -6.9770     2.9430 H       
  47 H47           -0.6927     3.7646     0.9618 H       
  48 H48           -0.0375     5.1591     0.0705 H       
  49 H49           -0.7192     3.7756    -0.8179 H       
@<TRIPOS>BOND
   1    1    2 ar
   2    1    6 ar
   3    1   31 1
   4    2    3 ar
   5    2   32 1
   6    3    4 ar
   7    3   33 1
   8    4    5 ar
   9    4    7 1
  10    5    6 ar
  11    5   10 1
  12    6   29 1
  13    7    8 2
  14    7   34 1
  15    8    9 1
  16    8   11 1
  17    9   10 1
  18    9   35 1
  19    9   36 1
  20   11   12 am
  21   11   13 2
  22   12   14 1
  23   12   37 1
  24   14   15 ar
  25   14   19 ar
  26   15   16 ar
  27   15   38 1
  28   16   17 ar
  29   16   39 1
  30   17   18 ar
  31   17   40 1
  32   18   19 ar
  33   18   20 1
  34   19   41 1
  35   20   21 2
  36   20   24 1
  37   21   22 1
  38   21   42 1
  39   22   23 1
  40   22   25 1
  41   23   24 2
  42   23   28 1
  43   25   26 2
  44   25   43 1
  45   26   27 1
  46   26   44 1
  47   27   28 2
  48   27   45 1
  49   28   46 1
  50   29   30 1
  51   30   47 1
  52   30   48 1
  53   30   49 1

#	End of record

