#	Name: ASD03090182
#	Creating user name:	WinNT
#	Creation time:	15. 06. 2019 20:28

#	Modifying user name:	WinNT
#	Modification time:	15. 06. 2019 20:28

#	Program:	/corina/corina34_cracker 3.40 0067  02.08.2006

@<TRIPOS>MOLECULE
ASD03090182
  54   56    0    0    0
SMALL
NO_CHARGES


@<TRIPOS>ATOM
   1 N1            -0.2823     0.9142    -0.8089 N.ar    
   2 C2            -0.1633    -0.1772    -0.0773 C.ar    
   3 C3             1.0660    -0.7754     0.1080 C.ar    
   4 C4             2.1944    -0.2073    -0.4934 C.ar    
   5 C5             2.0218     0.9497    -1.2604 C.ar    
   6 C6             0.7553     1.4817    -1.3930 C.ar    
   7 C7             3.5338    -0.8135    -0.3224 C.2     
   8 N8             7.0470    -0.7757    -0.4219 N.pl3   
   9 C9             7.4531     0.4477    -0.9649 C.ar    
  10 C10            6.6701     1.0770    -1.9238 C.ar    
  11 C11            7.0732     2.2851    -2.4587 C.ar    
  12 C12            8.2569     2.8683    -2.0400 C.ar    
  13 C13            9.0394     2.2425    -1.0838 C.ar    
  14 C14            8.6373     1.0378    -0.5417 C.ar    
  15 N15            4.6881    -0.2201    -0.5509 N.2     
  16 C16            5.6873    -1.0642    -0.2905 C.2     
  17 N17            5.1862    -2.2109     0.1088 N.2     
  18 N18            3.7889    -2.0714     0.1013 N.pl3   
  19 C19            2.8030    -3.0899     0.4716 C.3     
  20 C20            2.5540    -3.0339     1.9801 C.3     
  21 F21            8.6496     4.0495    -2.5652 F       
  22 C22            0.5550     2.7276    -2.2169 C.3     
  23 C23            1.5244    -4.0975     2.3668 C.3     
  24 C24            1.2791    -4.0424     3.8527 C.2     
  25 N25            0.4035    -4.8935     4.4232 N.am    
  26 O26            1.8696    -3.2323     4.5352 O.2     
  27 C27            0.1650    -4.8400     5.8677 C.3     
  28 C28           -0.3098    -5.8722     3.5988 C.3     
  29 C29           10.3276     2.8797    -0.6304 C.3     
  30 F30           10.9361     2.0671     0.3323 F       
  31 F31           11.1854     3.0275    -1.7256 F       
  32 F32           10.0571     4.1357    -0.0769 F       
  33 H33           -1.0401    -0.6080     0.3831 H       
  34 H34            1.1560    -1.6685     0.7085 H       
  35 H35            2.8669     1.4198    -1.7412 H       
  36 H36            7.7101    -1.4236    -0.1365 H       
  37 H37            5.7470     0.6221    -2.2513 H       
  38 H38            6.4646     2.7749    -3.2045 H       
  39 H39            9.2476     0.5503     0.2041 H       
  40 H40            1.8692    -2.9012    -0.0581 H       
  41 H41            3.1807    -4.0761     0.2020 H       
  42 H42            3.4878    -3.2226     2.5098 H       
  43 H43            2.1763    -2.0476     2.2497 H       
  44 H44            0.3516     2.4504    -3.2512 H       
  45 H45           -0.2876     3.2939    -1.8201 H       
  46 H46            1.4560     3.3395    -2.1751 H       
  47 H47            0.5906    -3.9088     1.8372 H       
  48 H48            1.9021    -5.0838     2.0973 H       
  49 H49           -0.6513    -4.1483     6.0757 H       
  50 H50           -0.0996    -5.8336     6.2293 H       
  51 H51            1.0685    -4.4981     6.3726 H       
  52 H52            0.2704    -6.7933     3.5445 H       
  53 H53           -1.2828    -6.0814     4.0434 H       
  54 H54           -0.4479    -5.4700     2.5952 H       
@<TRIPOS>BOND
   1    1    2 ar
   2    1    6 ar
   3    2    3 ar
   4    2   33 1
   5    3    4 ar
   6    3   34 1
   7    4    5 ar
   8    4    7 1
   9    5    6 ar
  10    5   35 1
  11    6   22 1
  12    7   15 2
  13    7   18 1
  14    8    9 1
  15    8   16 1
  16    8   36 1
  17    9   10 ar
  18    9   14 ar
  19   10   11 ar
  20   10   37 1
  21   11   12 ar
  22   11   38 1
  23   12   13 ar
  24   12   21 1
  25   13   14 ar
  26   13   29 1
  27   14   39 1
  28   15   16 1
  29   16   17 2
  30   17   18 1
  31   18   19 1
  32   19   20 1
  33   19   40 1
  34   19   41 1
  35   20   23 1
  36   20   42 1
  37   20   43 1
  38   22   44 1
  39   22   45 1
  40   22   46 1
  41   23   24 1
  42   23   47 1
  43   23   48 1
  44   24   25 am
  45   24   26 2
  46   25   27 1
  47   25   28 1
  48   27   49 1
  49   27   50 1
  50   27   51 1
  51   28   52 1
  52   28   53 1
  53   28   54 1
  54   29   30 1
  55   29   31 1
  56   29   32 1

#	End of record

