#	Name: ASD02500765
#	Creating user name:	WinNT
#	Creation time:	15. 06. 2019 20:23

#	Modifying user name:	WinNT
#	Modification time:	15. 06. 2019 20:23

#	Program:	/corina/corina34_cracker 3.40 0067  02.08.2006

@<TRIPOS>MOLECULE
ASD02500765
  50   52    0    0    0
SMALL
NO_CHARGES


@<TRIPOS>ATOM
   1 N1            -0.0179     1.4654     0.0101 N.am    
   2 C2             0.0021    -0.0041     0.0020 C.3     
   3 C3             0.8261    -0.4764    -1.2022 C.3     
   4 N4             2.1040     0.2493    -1.2105 N.am    
   5 C5             2.0841     1.7188    -1.2024 C.3     
   6 C6             1.2601     2.1912     0.0018 C.3     
   7 S7             3.5407    -0.5740    -1.2281 S.o2    
   8 O8             4.5153     0.3081    -0.6883 O.2     
   9 O9             3.2726    -1.8605    -0.6876 O.2     
  10 C10            3.9775    -0.8248    -2.9166 C.ar    
  11 C11            4.7442     0.1164    -3.5783 C.ar    
  12 C12            5.0880    -0.0779    -4.9021 C.ar    
  13 C13            4.6632    -1.2187    -5.5676 C.ar    
  14 C14            3.8939    -2.1616    -4.9014 C.ar    
  15 C15            3.5576    -1.9653    -3.5760 C.ar    
  16 O16            4.9997    -1.4119    -6.8700 O.3     
  17 C17            4.5274    -2.6090    -7.4913 C.3     
  18 S18           -1.4546     2.2888     0.0214 S.o2    
  19 O19           -1.1840     3.5755    -0.5173 O.2     
  20 O20           -2.4267     1.4070    -0.5232 O.2     
  21 C21           -1.8991     2.5390     1.7080 C.ar    
  22 C22           -1.4775     3.6764     2.3714 C.ar    
  23 C23           -1.8247     3.8749     3.6937 C.ar    
  24 C24           -2.5971     2.9317     4.3559 C.ar    
  25 C25           -3.0188     1.7913     3.6880 C.ar    
  26 C26           -2.6737     1.6002     2.3641 C.ar    
  27 O27           -2.9395     3.1245     5.6569 O.3     
  28 C28           -3.7363     2.1119     6.2748 C.3     
  29 H29            0.4576    -0.3688     0.9227 H       
  30 H30           -1.0165    -0.3833    -0.0803 H       
  31 H31            1.0139    -1.5469    -1.1197 H       
  32 H32            0.2810    -0.2679    -2.1228 H       
  33 H33            3.1027     2.0980    -1.1201 H       
  34 H34            1.6286     2.0836    -2.1231 H       
  35 H35            1.0723     3.2617    -0.0807 H       
  36 H36            1.8051     1.9827     0.9224 H       
  37 H37            5.0744     1.0045    -3.0599 H       
  38 H38            5.6867     0.6578    -5.4186 H       
  39 H39            3.5620    -3.0504    -5.4173 H       
  40 H40            2.9628    -2.7013    -3.0556 H       
  41 H41            4.9182    -3.4745    -6.9564 H       
  42 H42            3.4379    -2.6268    -7.4646 H       
  43 H43            4.8660    -2.6387    -8.5270 H       
  44 H44           -0.8760     4.4102     1.8555 H       
  45 H45           -1.4949     4.7634     4.2116 H       
  46 H46           -3.6201     1.0555     4.2014 H       
  47 H47           -3.0058     0.7148     1.8423 H       
  48 H48           -4.6784     2.0114     5.7358 H       
  49 H49           -3.2008     1.1629     6.2505 H       
  50 H50           -3.9376     2.3891     7.3096 H       
@<TRIPOS>BOND
   1    1    2 1
   2    1    6 1
   3    1   18 am
   4    2    3 1
   5    2   29 1
   6    2   30 1
   7    3    4 1
   8    3   31 1
   9    3   32 1
  10    4    5 1
  11    4    7 am
  12    5    6 1
  13    5   33 1
  14    5   34 1
  15    6   35 1
  16    6   36 1
  17    7    8 2
  18    7    9 2
  19    7   10 1
  20   10   11 ar
  21   10   15 ar
  22   11   12 ar
  23   11   37 1
  24   12   13 ar
  25   12   38 1
  26   13   14 ar
  27   13   16 1
  28   14   15 ar
  29   14   39 1
  30   15   40 1
  31   16   17 1
  32   17   41 1
  33   17   42 1
  34   17   43 1
  35   18   19 2
  36   18   20 2
  37   18   21 1
  38   21   22 ar
  39   21   26 ar
  40   22   23 ar
  41   22   44 1
  42   23   24 ar
  43   23   45 1
  44   24   25 ar
  45   24   27 1
  46   25   26 ar
  47   25   46 1
  48   26   47 1
  49   27   28 1
  50   28   48 1
  51   28   49 1
  52   28   50 1

#	End of record

