#	Name: ASD01884905
#	Creating user name:	WinNT
#	Creation time:	15. 06. 2019 19:49

#	Modifying user name:	WinNT
#	Modification time:	15. 06. 2019 19:49

#	Program:	/corina/corina34_cracker 3.40 0067  02.08.2006

@<TRIPOS>MOLECULE
ASD01884905
  50   55    0    0    0
SMALL
NO_CHARGES


@<TRIPOS>ATOM
   1 C1            -0.0167     1.3769     0.0096 C.ar    
   2 C2             0.0021    -0.0041     0.0020 C.ar    
   3 C3             1.2194    -0.6849    -0.0132 C.ar    
   4 C4             2.4159     0.0305    -0.0289 C.ar    
   5 C5             2.3838     1.4154    -0.0295 C.ar    
   6 C6             1.1721     2.0809     0.0020 C.ar    
   7 C7             1.2409    -2.1667    -0.0122 C.2     
   8 C8             0.7326    -2.8732    -1.0869 C.2     
   9 C9             1.7874    -2.8732     1.0867 C.2     
  10 C10            1.8065    -4.2191     1.0857 C.2     
  11 N11            1.3022    -4.9256     0.0314 N.pl3   
  12 C12            0.7673    -4.2790    -1.0563 C.2     
  13 Cl13           0.0615    -2.0378    -2.4527 Cl      
  14 C14            1.1916    -6.2557    -0.2356 C.2     
  15 N15            0.6215    -6.3766    -1.4070 N.2     
  16 N16            0.3670    -5.2163    -1.9015 N.2     
  17 C17            1.6440    -7.3837     0.6554 C.3     
  18 O18            3.5445     2.1256    -0.0876 O.3     
  19 C19            3.7717     2.8297    -1.3143 C.3     
  20 C20            3.1010     4.1862    -1.2878 C.3     
  21 N21            1.6432     4.1169    -1.2299 N.3     
  22 C22            1.1552     3.5963     0.0521 C.3     
  23 C23            1.0740     5.3526    -1.5148 C.ar    
  24 C24            0.5826    -8.3782     1.1301 C.3     
  25 C25            1.6086    -8.7993     0.0761 C.3     
  26 N26            0.2458     5.9097    -0.6450 N.ar    
  27 C27           -0.3158     7.0813    -0.8769 C.ar    
  28 C28           -0.0574     7.7717    -2.0437 C.ar    
  29 C29            0.8060     7.2219    -2.9825 C.ar    
  30 C30            1.3842     5.9957    -2.7091 C.ar    
  31 H31           -0.9585     1.9053     0.0169 H       
  32 H32           -0.9258    -0.5568     0.0082 H       
  33 H33            3.3614    -0.4914    -0.0403 H       
  34 H34            2.1908    -2.3301     1.9285 H       
  35 H35            2.2262    -4.7470     1.9292 H       
  36 H36            2.4520    -7.1422     1.3460 H       
  37 H37            4.8439     2.9625    -1.4583 H       
  38 H38            3.3688     2.2466    -2.1424 H       
  39 H39            3.4589     4.7352    -0.4168 H       
  40 H40            3.3886     4.7350    -2.1847 H       
  41 H41            0.1369     3.9449     0.2241 H       
  42 H42            1.8030     3.9425     0.8574 H       
  43 H43            0.6925    -8.7913     2.1328 H       
  44 H44           -0.4429    -8.2166     0.7979 H       
  45 H45            1.2581    -8.9148    -0.9495 H       
  46 H46            2.3935    -9.4895     0.3854 H       
  47 H47           -0.9866     7.5052    -0.1442 H       
  48 H48           -0.5221     8.7295    -2.2251 H       
  49 H49            1.0241     7.7422    -3.9034 H       
  50 H50            2.0605     5.5395    -3.4168 H       
@<TRIPOS>BOND
   1    1    2 ar
   2    1    6 ar
   3    1   31 1
   4    2    3 ar
   5    2   32 1
   6    3    4 ar
   7    3    7 1
   8    4    5 ar
   9    4   33 1
  10    5    6 ar
  11    5   18 1
  12    6   22 1
  13    7    8 2
  14    7    9 1
  15    8   13 1
  16    8   12 1
  17    9   10 2
  18    9   34 1
  19   10   11 1
  20   10   35 1
  21   11   12 1
  22   11   14 1
  23   12   16 2
  24   14   15 2
  25   14   17 1
  26   15   16 1
  27   17   24 1
  28   17   25 1
  29   17   36 1
  30   18   19 1
  31   19   20 1
  32   19   37 1
  33   19   38 1
  34   20   21 1
  35   20   39 1
  36   20   40 1
  37   21   22 1
  38   21   23 1
  39   22   41 1
  40   22   42 1
  41   23   26 ar
  42   23   30 ar
  43   24   25 1
  44   24   43 1
  45   24   44 1
  46   25   45 1
  47   25   46 1
  48   26   27 ar
  49   27   28 ar
  50   27   47 1
  51   28   29 ar
  52   28   48 1
  53   29   30 ar
  54   29   49 1
  55   30   50 1

#	End of record

