#	Name: ASD05430487
#	Creating user name:	WinNT
#	Creation time:	15. 06. 2019 21:00

#	Modifying user name:	WinNT
#	Modification time:	15. 06. 2019 21:00

#	Program:	/corina/corina34_cracker 3.40 0067  02.08.2006

@<TRIPOS>MOLECULE
ASD05430487
  61   65    0    0    0
SMALL
NO_CHARGES


@<TRIPOS>ATOM
   1 C1            -0.0486     1.3647     0.4958 C.ar    
   2 C2            -0.0156    -0.0182     0.3209 C.ar    
   3 C3            -1.1868    -0.7165     0.0577 C.ar    
   4 C4            -2.3875    -0.0460    -0.0315 C.ar    
   5 C5            -2.4285     1.3412     0.1433 C.ar    
   6 C6            -1.2500     2.0434     0.4135 C.ar    
   7 C7            -4.8651     1.3680    -0.0475 C.2     
   8 C8            -3.7096     2.0591     0.0480 C.2     
   9 N9            -7.2601     1.5602     0.3604 N.pl3   
  10 C10           -6.1476     2.0488    -0.3242 C.2     
  11 O11            1.1001     2.0450     0.7529 O.3     
  12 C12            0.9923     3.4600     0.9210 C.3     
  13 C13            1.4549    -1.8236     1.1626 C.2     
  14 N14            1.2034    -0.7056     0.4105 N.pl3   
  15 C15            2.7450    -2.1507     0.9560 C.2     
  16 N16            3.2711    -1.2602     0.1022 N.2     
  17 C17            2.3575    -0.3895    -0.2318 C.2     
  18 C18            3.4718    -3.3156     1.5771 C.3     
  19 C19           -7.1017     0.3180     1.1178 C.3     
  20 C20           -8.5250     3.4002     1.3081 C.ar    
  21 C21           -9.6256     4.2285     1.4235 C.ar    
  22 C22           -8.5335     5.4341     3.1862 C.ar    
  23 C23           -7.4311     4.6023     3.0692 C.ar    
  24 C24           -7.4288     3.5860     2.1293 C.ar    
  25 F25           -8.5375     6.4268     4.1026 F       
  26 C26           -9.6317     5.2463     2.3618 C.ar    
  27 C27           -6.1542    -0.6121     0.3466 C.3     
  28 O28           -4.8956     0.0117     0.1020 O.3     
  29 C29           -8.5228     2.2893     0.2898 C.3     
  30 C30           -8.6626     2.8793    -1.1181 C.3     
  31 O31           -7.4979     3.6274    -1.4527 O.3     
  32 N32           -6.2573     3.0240    -1.1612 N.2     
  33 F33           -6.3594     4.7834     3.8716 F       
  34 F34          -10.7073     6.0561     2.4737 F       
  35 C35           -9.6856     1.3340     0.5660 C.3     
  36 C36           -5.9308    -1.8867     1.1630 C.3     
  37 H37           -1.1565    -1.7875    -0.0778 H       
  38 H38           -3.2967    -0.5916    -0.2366 H       
  39 H39           -1.2770     3.1145     0.5492 H       
  40 H40           -3.7252     3.1390     0.0545 H       
  41 H41            1.9789     3.8783     1.1202 H       
  42 H42            0.5862     3.9039     0.0122 H       
  43 H43            0.3297     3.6769     1.7588 H       
  44 H44            0.7544    -2.3403     1.8019 H       
  45 H45            2.4961     0.4423    -0.9065 H       
  46 H46            3.3696    -4.1912     0.9361 H       
  47 H47            4.5275    -3.0678     1.6881 H       
  48 H48            3.0441    -3.5303     2.5565 H       
  49 H49           -6.6811     0.5394     2.0987 H       
  50 H50           -8.0720    -0.1648     1.2347 H       
  51 H51          -10.4812     4.0818     0.7810 H       
  52 H52           -6.5699     2.9375     2.0378 H       
  53 H53           -6.6119    -0.8758    -0.6069 H       
  54 H54           -8.7921     2.0708    -1.8376 H       
  55 H55           -9.5341     3.5331    -1.1512 H       
  56 H56           -9.5727     0.9021     1.5604 H       
  57 H57          -10.6264     1.8817     0.5124 H       
  58 H58           -9.6860     0.5375    -0.1782 H       
  59 H59           -6.8856    -2.3871     1.3239 H       
  60 H60           -5.2586    -2.5521     0.6212 H       
  61 H61           -5.4889    -1.6289     2.1255 H       
@<TRIPOS>BOND
   1    1    2 ar
   2    1   11 1
   3    1    6 ar
   4    2    3 ar
   5    2   14 1
   6    3    4 ar
   7    3   37 1
   8    4    5 ar
   9    4   38 1
  10    5    6 ar
  11    5    8 1
  12    6   39 1
  13    7    8 2
  14    7   28 1
  15    7   10 1
  16    8   40 1
  17    9   10 1
  18    9   29 1
  19    9   19 1
  20   10   32 2
  21   11   12 1
  22   12   41 1
  23   12   42 1
  24   12   43 1
  25   13   14 1
  26   13   15 2
  27   13   44 1
  28   14   17 1
  29   15   16 1
  30   15   18 1
  31   16   17 2
  32   17   45 1
  33   18   46 1
  34   18   47 1
  35   18   48 1
  36   19   27 1
  37   19   49 1
  38   19   50 1
  39   20   21 ar
  40   20   24 ar
  41   20   29 1
  42   21   26 ar
  43   21   51 1
  44   22   23 ar
  45   22   25 1
  46   22   26 ar
  47   23   24 ar
  48   23   33 1
  49   24   52 1
  50   26   34 1
  51   27   36 1
  52   27   28 1
  53   27   53 1
  54   29   30 1
  55   29   35 1
  56   30   31 1
  57   30   54 1
  58   30   55 1
  59   31   32 1
  60   35   56 1
  61   35   57 1
  62   35   58 1
  63   36   59 1
  64   36   60 1
  65   36   61 1

#	End of record

