#	Name: ASD01885648
#	Creating user name:	WinNT
#	Creation time:	15. 06. 2019 19:49

#	Modifying user name:	WinNT
#	Modification time:	15. 06. 2019 19:49

#	Program:	/corina/corina34_cracker 3.40 0067  02.08.2006

@<TRIPOS>MOLECULE
ASD01885648
  50   53    0    0    0
SMALL
NO_CHARGES


@<TRIPOS>ATOM
   1 C1            -0.0160     1.3299     0.0094 C.ar    
   2 C2            -1.2516     2.0246     0.0189 C.ar    
   3 C3            -2.4603     1.2819     0.0205 C.ar    
   4 C4            -2.3724    -0.1023     0.0125 C.ar    
   5 C5            -1.1116    -0.7137     0.0033 C.ar    
   6 N6             0.0021    -0.0041     0.0020 N.ar    
   7 C7             1.1370     3.4287     0.0097 C.ar    
   8 C8            -0.0796     4.1069     0.0258 C.ar    
   9 C9            -1.2599     3.4250     0.0271 C.ar    
  10 C10           -3.7750     1.9632     0.0308 C.ar    
  11 C11           -1.0288    -2.1433    -0.0049 C.1     
  12 C12            2.4236     4.2134     0.0092 C.3     
  13 C13            1.1821     2.0685     0.0019 C.ar    
  14 N14            2.8503     4.4525     1.3901 N.am    
  15 C15           -4.7577     1.6018    -0.8911 C.ar    
  16 C16           -5.9806     2.2394    -0.8774 C.ar    
  17 C17           -6.2339     3.2377     0.0500 C.ar    
  18 C18           -5.2607     3.6006     0.9676 C.ar    
  19 C19           -4.0369     2.9647     0.9661 C.ar    
  20 F20           -7.4334     3.8593     0.0594 F       
  21 N21           -0.9630    -3.2774    -0.0113 N.1     
  22 C22            3.6506     3.5532     1.9820 C.2     
  23 C23            4.1334     3.7468     3.3952 C.3     
  24 C24            3.0935     4.5583     4.1753 C.3     
  25 C25            2.8382     5.8713     3.4276 C.3     
  26 C26            2.4298     5.5647     2.0110 C.2     
  27 O27            3.9914     2.5654     1.3675 O.2     
  28 O28            1.7003     6.3339     1.4230 O.2     
  29 C29            1.7907     3.7625     4.2757 C.3     
  30 C30            3.6247     4.8607     5.5779 C.3     
  31 H31           -3.2690    -0.7044     0.0137 H       
  32 H32           -0.0878     5.1868     0.0377 H       
  33 H33           -2.1968     3.9621     0.0341 H       
  34 H34            3.1935     3.6485    -0.5164 H       
  35 H35            2.2667     5.1680    -0.4931 H       
  36 H36            2.1336     1.5577    -0.0097 H       
  37 H37           -4.5612     0.8243    -1.6144 H       
  38 H38           -6.7419     1.9606    -1.5909 H       
  39 H39           -5.4644     4.3760     1.6913 H       
  40 H40           -3.2809     3.2446     1.6849 H       
  41 H41            4.2684     2.7752     3.8703 H       
  42 H42            5.0820     4.2836     3.3857 H       
  43 H43            2.0429     6.4256     3.9260 H       
  44 H44            3.7497     6.4689     3.4190 H       
  45 H45            1.9785     2.8218     4.7935 H       
  46 H46            1.0529     4.3418     4.8309 H       
  47 H47            1.4124     3.5568     3.2744 H       
  48 H48            4.5482     5.4346     5.5008 H       
  49 H49            2.8833     5.4379     6.1306 H       
  50 H50            3.8210     3.9252     6.1017 H       
@<TRIPOS>BOND
   1    1    6 ar
   2    1   13 ar
   3    1    2 ar
   4    2    3 ar
   5    2    9 ar
   6    3   10 1
   7    3    4 ar
   8    4    5 ar
   9    4   31 1
  10    5   11 1
  11    5    6 ar
  12    7   12 1
  13    7    8 ar
  14    7   13 ar
  15    8    9 ar
  16    8   32 1
  17    9   33 1
  18   10   15 ar
  19   10   19 ar
  20   11   21 3
  21   12   14 1
  22   12   34 1
  23   12   35 1
  24   13   36 1
  25   14   22 am
  26   14   26 am
  27   15   16 ar
  28   15   37 1
  29   16   17 ar
  30   16   38 1
  31   17   20 1
  32   17   18 ar
  33   18   19 ar
  34   18   39 1
  35   19   40 1
  36   22   23 1
  37   22   27 2
  38   23   24 1
  39   23   41 1
  40   23   42 1
  41   24   25 1
  42   24   29 1
  43   24   30 1
  44   25   26 1
  45   25   43 1
  46   25   44 1
  47   26   28 2
  48   29   45 1
  49   29   46 1
  50   29   47 1
  51   30   48 1
  52   30   49 1
  53   30   50 1

#	End of record

