#	Name: ASD01150549
#	Creating user name:	WinNT
#	Creation time:	15. 06. 2019 19:04

#	Modifying user name:	WinNT
#	Modification time:	15. 06. 2019 19:04

#	Program:	/corina/corina34_cracker 3.40 0067  02.08.2006

@<TRIPOS>MOLECULE
ASD01150549
  44   46    0    0    0
SMALL
NO_CHARGES


@<TRIPOS>ATOM
   1 C1             0.4933     1.3919    -0.9465 C.ar    
   2 C2             0.4639     0.0109    -0.9224 C.ar    
   3 C3             1.9479     0.0102     0.9677 C.ar    
   4 C4             1.9789     1.3967     0.9445 C.ar    
   5 C5             1.2508     2.0887    -0.0133 C.ar    
   6 N6             1.2801     3.4880    -0.0393 N.am    
   7 C7             0.1264     4.1736    -0.1219 C.2     
   8 N8             0.1176     5.5193    -0.1491 N.am    
   9 C9             1.2789     6.2039    -0.0933 C.2     
  10 C10            2.5443     5.4601    -0.0029 C.2     
  11 N11            2.5098     4.1538     0.0267 N.2     
  12 O12            1.2793     7.4207    -0.1178 O.2     
  13 C13           -1.1539     6.2413    -0.2399 C.3     
  14 O14           -0.9269     3.5677    -0.1732 O.2     
  15 C15           -1.6752     6.5170     1.1469 C.ar    
  16 O16            3.7301     6.1204     0.0549 O.3     
  17 C17            4.9130     5.3233     0.1414 C.3     
  18 C18            1.1883    -0.6824     0.0308 C.ar    
  19 N19            2.6816    -0.6914     1.9324 N.am    
  20 C20            2.9446    -0.1216     3.1251 C.2     
  21 C21            3.6402    -0.9140     4.2018 C.3     
  22 O22            2.6215     1.0290     3.3319 O.2     
  23 C23           -1.3294     7.6814     1.8048 C.ar    
  24 N24           -1.7806     7.9317     3.0188 N.ar    
  25 C25           -2.5745     7.0891     3.6513 C.ar    
  26 C26           -2.9645     5.9003     3.0542 C.ar    
  27 C27           -2.5123     5.6073     1.7755 C.ar    
  28 F28            1.1575    -2.0329     0.0519 F       
  29 Cl29          -3.1362     7.4726     5.2485 Cl      
  30 F30           -3.7774     5.0408     3.7067 F       
  31 H31           -0.0696     1.9303    -1.6946 H       
  32 H32           -0.1260    -0.5285    -1.6487 H       
  33 H33            2.5683     1.9368     1.6707 H       
  34 H34           -0.9996     7.1844    -0.7642 H       
  35 H35           -1.8772     5.6359    -0.7863 H       
  36 H36            4.9801     4.6767    -0.7335 H       
  37 H37            5.7870     5.9733     0.1807 H       
  38 H38            4.8740     4.7119     1.0429 H       
  39 H39            3.0005    -1.5875     1.7421 H       
  40 H40            4.7185    -0.7858     4.1080 H       
  41 H41            3.3159    -0.5600     5.1804 H       
  42 H42            3.3892    -1.9694     4.0957 H       
  43 H43           -0.6811     8.3958     1.3192 H       
  44 H44           -2.7992     4.6891     1.2845 H       
@<TRIPOS>BOND
   1    1    2 ar
   2    1    5 ar
   3    1   31 1
   4    2   18 ar
   5    2   32 1
   6    3    4 ar
   7    3   19 1
   8    3   18 ar
   9    4    5 ar
  10    4   33 1
  11    5    6 1
  12    6    7 am
  13    6   11 1
  14    7    8 am
  15    7   14 2
  16    8    9 am
  17    8   13 1
  18    9   10 1
  19    9   12 2
  20   10   11 2
  21   10   16 1
  22   13   15 1
  23   13   34 1
  24   13   35 1
  25   15   23 ar
  26   15   27 ar
  27   16   17 1
  28   17   36 1
  29   17   37 1
  30   17   38 1
  31   18   28 1
  32   19   20 am
  33   19   39 1
  34   20   21 1
  35   20   22 2
  36   21   40 1
  37   21   41 1
  38   21   42 1
  39   23   24 ar
  40   23   43 1
  41   24   25 ar
  42   25   26 ar
  43   25   29 1
  44   26   27 ar
  45   26   30 1
  46   27   44 1

#	End of record

