#	Name: ASD01901488
#	Creating user name:	WinNT
#	Creation time:	15. 06. 2019 19:53

#	Modifying user name:	WinNT
#	Modification time:	15. 06. 2019 19:53

#	Program:	/corina/corina34_cracker 3.40 0067  02.08.2006

@<TRIPOS>MOLECULE
ASD01901488
  36   39    0    0    0
SMALL
NO_CHARGES


@<TRIPOS>ATOM
   1 C1            -0.0169     1.3917     0.0097 C.ar    
   2 C2             1.1726     2.0959     0.0021 C.ar    
   3 C3             2.3801     1.4182    -0.0135 C.ar    
   4 C4             2.4024     0.0322    -0.0216 C.ar    
   5 C5             1.2212    -0.6798    -0.0142 C.ar    
   6 C6             0.0021    -0.0041     0.0020 C.ar    
   7 C7            -1.2704    -0.7654     0.0106 C.2     
   8 N8            -2.3677    -2.8625     0.0166 N.2     
   9 C9            -1.2522    -2.1772     0.0087 C.2     
  10 N10           -2.4241    -0.1270     0.0255 N.2     
  11 N11           -3.6107    -0.8703     0.0337 N.pl3   
  12 C12           -3.5550    -2.2432     0.0263 C.2     
  13 C13           -4.9277    -0.5203     0.0493 C.2     
  14 C14           -5.6453    -1.6674     0.0510 C.2     
  15 N15           -4.7995    -2.6997     0.0358 N.2     
  16 C16           -7.1492    -1.7633     0.0663 C.3     
  17 O17           -7.7103    -0.4492     0.0787 O.3     
  18 C18           -9.0645    -0.3574     0.0933 C.ar    
  19 C19           -9.6952     0.8830     0.1061 C.ar    
  20 C20           -9.8579    -1.5026     0.0901 C.ar    
  21 C21          -11.2305    -1.3691     0.1054 C.ar    
  22 N22          -11.7944    -0.1758     0.1229 N.ar    
  23 C23          -11.0770     0.9341     0.1209 C.ar    
  24 F24           -1.1949     2.0527     0.0301 F       
  25 F25          -11.7008     2.1324     0.1339 F       
  26 F26            3.5404     2.1102    -0.0213 F       
  27 H27            1.1602     3.1758     0.0080 H       
  28 H28            3.3470    -0.4913    -0.0342 H       
  29 H29            1.2407    -1.7596    -0.0205 H       
  30 H30           -0.3063    -2.6983     0.0003 H       
  31 H31           -5.3242     0.4843     0.0590 H       
  32 H32           -7.4884    -2.2948    -0.8229 H       
  33 H33           -7.4698    -2.3037     0.9570 H       
  34 H34           -9.1136     1.7931     0.1049 H       
  35 H35           -9.4038    -2.4824     0.0755 H       
  36 H36          -11.8520    -2.2523     0.1026 H       
@<TRIPOS>BOND
   1    1    6 ar
   2    1    2 ar
   3    1   24 1
   4    2    3 ar
   5    2   27 1
   6    3    4 ar
   7    3   26 1
   8    4    5 ar
   9    4   28 1
  10    5    6 ar
  11    5   29 1
  12    6    7 1
  13    7   10 2
  14    7    9 1
  15    8    9 2
  16    8   12 1
  17    9   30 1
  18   10   11 1
  19   11   13 1
  20   11   12 1
  21   12   15 2
  22   13   14 2
  23   13   31 1
  24   14   15 1
  25   14   16 1
  26   16   17 1
  27   16   32 1
  28   16   33 1
  29   17   18 1
  30   18   19 ar
  31   18   20 ar
  32   19   23 ar
  33   19   34 1
  34   20   21 ar
  35   20   35 1
  36   21   22 ar
  37   21   36 1
  38   22   23 ar
  39   23   25 1

#	End of record

