#	Name: ASD09200058
#	Creating user name:	WinNT
#	Creation time:	15. 06. 2019 21:21

#	Modifying user name:	WinNT
#	Modification time:	15. 06. 2019 21:21

#	Program:	/corina/corina34_cracker 3.40 0067  02.08.2006

@<TRIPOS>MOLECULE
ASD09200058
  57   60    0    0    0
SMALL
NO_CHARGES


@<TRIPOS>ATOM
   1 C1            -0.0187     1.5257     0.0104 C.3     
   2 C2             0.0021    -0.0041     0.0020 C.3     
   3 C3             0.7395    -0.5225     1.2369 C.3     
   4 C4            -1.4629    -0.4850     0.1027 C.3     
   5 N5             0.5634    -0.5308    -1.2285 N.3     
   6 C6             2.0042    -0.5548    -1.3989 C.3     
   7 C7             2.5455     0.8141    -1.8215 C.3     
   8 C8             2.3320    -1.5468    -2.5381 C.3     
   9 C9             2.7364    -1.0366    -0.1488 C.3     
  10 C10            2.2425    -0.2866     1.0874 C.3     
  11 N11            2.9326    -0.8056     2.2754 N.pl3   
  12 C12            3.0744    -0.0066     3.3983 C.2     
  13 N13            3.6676    -0.3574     4.4971 N.2     
  14 S14            2.4841     1.6451     3.5524 S.3     
  15 C15            3.1230     1.7237     5.1926 C.2     
  16 C16            3.7080     0.5472     5.4745 C.2     
  17 C17            4.3551     0.2755     6.7811 C.ar    
  18 C18            4.2792     1.2165     7.8074 C.ar    
  19 C19            4.8814     0.9646     9.0244 C.ar    
  20 C20            5.5611    -0.2193     9.2326 C.ar    
  21 C21            5.0346    -0.9219     6.9874 C.ar    
  22 C22            5.6432    -1.1678     8.2138 C.ar    
  23 C23            6.3694    -2.4419     8.4412 C.ar    
  24 C24            6.4485    -3.3924     7.4255 C.ar    
  25 C25            7.1300    -4.5732     7.6405 C.ar    
  26 C26            6.9794    -2.6895     9.6691 C.ar    
  27 C27            7.6539    -3.8759     9.8750 C.ar    
  28 C28            7.7338    -4.8138     8.8615 C.ar    
  29 H29            1.0039     1.9029     0.0027 H       
  30 H30           -0.5459     1.8867    -0.8726 H       
  31 H31           -0.5289     1.8772     0.9072 H       
  32 H32            0.3756     0.0014     2.1227 H       
  33 H33            0.5484    -1.5911     1.3515 H       
  34 H34           -2.0291    -0.1058    -0.7480 H       
  35 H35           -1.4886    -1.5747     0.0996 H       
  36 H36           -1.9044    -0.1138     1.0276 H       
  37 H37            0.0863    -0.1830    -2.0467 H       
  38 H38            2.3019     1.5527    -1.0579 H       
  39 H39            3.6276     0.7564    -1.9391 H       
  40 H40            2.0923     1.1074    -2.7684 H       
  41 H41            1.8489    -1.2164    -3.4577 H       
  42 H42            3.4110    -1.5846    -2.6878 H       
  43 H43            1.9671    -2.5389    -2.2722 H       
  44 H44            2.5617    -2.1072    -0.0164 H       
  45 H45            3.8095    -0.8691    -0.2695 H       
  46 H46            2.4529     0.7761     0.9951 H       
  47 H47            3.2890    -1.7077     2.2738 H       
  48 H48            3.0582     2.5731     5.8565 H       
  49 H49            3.7489     2.1441     7.6501 H       
  50 H50            4.8207     1.6965     9.8163 H       
  51 H51            6.0304    -0.4107    10.1863 H       
  52 H52            5.0954    -1.6540     6.1957 H       
  53 H53            5.9772    -3.2057     6.4719 H       
  54 H54            7.1917    -5.3108     6.8540 H       
  55 H55            6.9249    -1.9542    10.4583 H       
  56 H56            8.1274    -4.0687    10.8263 H       
  57 H57            8.2660    -5.7391     9.0254 H       
@<TRIPOS>BOND
   1    1    2 1
   2    1   29 1
   3    1   30 1
   4    1   31 1
   5    2    3 1
   6    2    4 1
   7    2    5 1
   8    3   32 1
   9    3   33 1
  10    3   10 1
  11    4   34 1
  12    4   35 1
  13    4   36 1
  14    5   37 1
  15    5    6 1
  16    6    9 1
  17    6    8 1
  18    6    7 1
  19    7   38 1
  20    7   39 1
  21    7   40 1
  22    8   41 1
  23    8   42 1
  24    8   43 1
  25    9   44 1
  26    9   45 1
  27    9   10 1
  28   10   11 1
  29   10   46 1
  30   11   12 1
  31   11   47 1
  32   12   14 1
  33   12   13 2
  34   13   16 1
  35   14   15 1
  36   15   48 1
  37   15   16 2
  38   16   17 1
  39   17   18 ar
  40   17   21 ar
  41   18   19 ar
  42   18   49 1
  43   19   50 1
  44   19   20 ar
  45   20   51 1
  46   20   22 ar
  47   21   22 ar
  48   21   52 1
  49   22   23 1
  50   23   26 ar
  51   23   24 ar
  52   24   53 1
  53   24   25 ar
  54   25   28 ar
  55   25   54 1
  56   26   55 1
  57   26   27 ar
  58   27   56 1
  59   27   28 ar
  60   28   57 1

#	End of record

