#	Name: ASD01881487
#	Creating user name:	WinNT
#	Creation time:	15. 06. 2019 19:42

#	Modifying user name:	WinNT
#	Modification time:	15. 06. 2019 19:42

#	Program:	/corina/corina34_cracker 3.40 0067  02.08.2006

@<TRIPOS>MOLECULE
ASD01881487
  51   54    0    0    0
SMALL
NO_CHARGES


@<TRIPOS>ATOM
   1 C1            -0.0168     1.3866     0.0097 C.ar    
   2 C2             0.0021    -0.0041     0.0020 C.ar    
   3 C3             1.2155    -0.6858    -0.0132 C.ar    
   4 C4             2.4016     0.0167    -0.0207 C.ar    
   5 C5             2.3844     1.4123    -0.0131 C.ar    
   6 C6             1.1658     2.0930     0.0022 C.ar    
   7 C7             3.6564     2.1694    -0.0206 C.2     
   8 C8             4.0212     2.9733     1.0838 C.2     
   9 C9             5.1848     3.6565     1.0603 C.2     
  10 N10            6.0168     3.5847    -0.0127 N.am    
  11 C11            5.7084     2.8318    -1.0846 C.2     
  12 C12            4.5140     2.0976    -1.1096 C.2     
  13 N13           -1.1963    -0.7164     0.0101 N.pl3   
  14 O14            6.4726     2.7841    -2.0358 O.2     
  15 C15            7.2714     4.3411    -0.0020 C.3     
  16 C16            8.3822     3.4779     0.5997 C.3     
  17 C17            9.6924     4.2679     0.6109 C.3     
  18 Cl18           4.1077     1.1235    -2.4879 Cl      
  19 C19           -2.4741    -0.0000     0.0266 C.3     
  20 C20           10.9031     3.6184     1.2842 C.3     
  21 C21           10.8463     3.7343    -0.2403 C.3     
  22 O22           -5.2033     0.1637    -0.7730 O.3     
  23 C23           -4.2518     1.0360    -1.3862 C.3     
  24 C24           -2.8792     0.3583    -1.4065 C.3     
  25 Cl25           1.2353    -2.4216    -0.0221 Cl      
  26 C26           -3.5547    -0.8940     0.6426 C.3     
  27 C27           -4.9012    -0.1679     0.5838 C.3     
  28 H28           -0.9596     1.9133     0.0170 H       
  29 H29            3.3431    -0.5122    -0.0322 H       
  30 H30            1.1502     3.1729     0.0078 H       
  31 H31            3.3706     3.0407     1.9432 H       
  32 H32            5.4590     4.2695     1.9061 H       
  33 H33           -1.1840    -1.6863     0.0047 H       
  34 H34            7.5380     4.6171    -1.0222 H       
  35 H35            7.1469     5.2429     0.5976 H       
  36 H36            8.1155     3.2020     1.6199 H       
  37 H37            8.5067     2.5762     0.0002 H       
  38 H38            9.5886     5.3495     0.6974 H       
  39 H39           -2.3740     0.9107     0.6171 H       
  40 H40           11.5960     4.2728     1.8132 H       
  41 H41           10.7662     2.6284     1.7191 H       
  42 H42           10.6720     2.8205    -0.8084 H       
  43 H43           11.5018     4.4649    -0.7143 H       
  44 H44           -4.5644     1.2547    -2.4073 H       
  45 H45           -4.1906     1.9641    -0.8179 H       
  46 H46           -2.1431     1.0392    -1.8337 H       
  47 H47           -2.9299    -0.5491    -2.0084 H       
  48 H48           -3.6190    -1.8266     0.0821 H       
  49 H49           -3.3017    -1.1086     1.6809 H       
  50 H50           -4.8485     0.7445     1.1778 H       
  51 H51           -5.6816    -0.8164     0.9819 H       
@<TRIPOS>BOND
   1    1    2 ar
   2    1    6 ar
   3    1   28 1
   4    2    3 ar
   5    2   13 1
   6    3    4 ar
   7    3   25 1
   8    4    5 ar
   9    4   29 1
  10    5    6 ar
  11    5    7 1
  12    6   30 1
  13    7    8 1
  14    7   12 2
  15    8    9 2
  16    8   31 1
  17    9   10 1
  18    9   32 1
  19   10   11 am
  20   10   15 1
  21   11   12 1
  22   11   14 2
  23   12   18 1
  24   13   19 1
  25   13   33 1
  26   15   16 1
  27   15   34 1
  28   15   35 1
  29   16   17 1
  30   16   36 1
  31   16   37 1
  32   17   20 1
  33   17   21 1
  34   17   38 1
  35   19   26 1
  36   19   24 1
  37   19   39 1
  38   20   21 1
  39   20   40 1
  40   20   41 1
  41   21   42 1
  42   21   43 1
  43   22   23 1
  44   22   27 1
  45   23   24 1
  46   23   44 1
  47   23   45 1
  48   24   46 1
  49   24   47 1
  50   26   27 1
  51   26   48 1
  52   26   49 1
  53   27   50 1
  54   27   51 1

#	End of record

