#	Name: ASD01884923
#	Creating user name:	WinNT
#	Creation time:	15. 06. 2019 19:49

#	Modifying user name:	WinNT
#	Modification time:	15. 06. 2019 19:49

#	Program:	/corina/corina34_cracker 3.40 0067  02.08.2006

@<TRIPOS>MOLECULE
ASD01884923
  42   46    0    0    0
SMALL
NO_CHARGES


@<TRIPOS>ATOM
   1 C1            -0.1533     1.5901    -0.7032 C.ar    
   2 C2            -0.3271     0.2267    -0.8100 C.ar    
   3 C3             0.6424    -0.6402    -0.3053 C.ar    
   4 C4             1.7851    -0.1238     0.3060 C.ar    
   5 C5             1.9527     1.2406     0.4095 C.ar    
   6 C6             0.9855     2.1009    -0.0941 C.ar    
   7 C7             0.4587    -2.1058    -0.4179 C.2     
   8 C8             1.3201    -2.8603    -1.1939 C.2     
   9 C9            -0.5972    -2.7494     0.2726 C.2     
  10 C10           -0.7622    -4.0812     0.1694 C.2     
  11 N11            0.0797    -4.8336    -0.5987 N.pl3   
  12 C12            1.1195    -4.2495    -1.2808 C.2     
  13 Cl13           2.6284    -2.1037    -2.0480 Cl      
  14 C14            0.1507    -6.1636    -0.8813 C.2     
  15 N15            1.1678    -6.3422    -1.6843 N.2     
  16 N16            1.7480    -5.2196    -1.9267 N.2     
  17 C17           -0.7738    -7.2349    -0.3629 C.3     
  18 C18           -0.6392    -8.6355    -0.9639 C.3     
  19 O19            1.1538     3.4449     0.0095 O.3     
  20 C20            0.6469     4.0686     1.1051 C.ar    
  21 C21            0.6983     5.4518     1.2034 C.ar    
  22 C22            0.1818     6.0835     2.3181 C.ar    
  23 C23           -0.3860     5.3387     3.3353 C.ar    
  24 C24           -0.4386     3.9603     3.2399 C.ar    
  25 C25            0.0717     3.3240     2.1250 C.ar    
  26 C26           -0.1537    -8.3648     0.4616 C.3     
  27 H27           -0.9014     2.2617    -1.0977 H       
  28 H28           -1.2131    -0.1699    -1.2835 H       
  29 H29            2.5374    -0.7922     0.6981 H       
  30 H30            2.8371     1.6411     0.8826 H       
  31 H31           -1.2722    -2.1694     0.8846 H       
  32 H32           -1.5705    -4.5611     0.7012 H       
  33 H33           -1.7732    -6.8997    -0.0858 H       
  34 H34           -1.5503    -9.2220    -1.0824 H       
  35 H35            0.1180    -8.7821    -1.7341 H       
  36 H36            1.1421     6.0340     0.4093 H       
  37 H37            0.2220     7.1600     2.3952 H       
  38 H38           -0.7889     5.8345     4.2061 H       
  39 H39           -0.8827     3.3809     4.0358 H       
  40 H40            0.0301     2.2474     2.0508 H       
  41 H41            0.9229    -8.3332     0.6291 H       
  42 H42           -0.7454    -8.7732     1.2809 H       
@<TRIPOS>BOND
   1    1    2 ar
   2    1    6 ar
   3    1   27 1
   4    2    3 ar
   5    2   28 1
   6    3    4 ar
   7    3    7 1
   8    4    5 ar
   9    4   29 1
  10    5    6 ar
  11    5   30 1
  12    6   19 1
  13    7    8 2
  14    7    9 1
  15    8   13 1
  16    8   12 1
  17    9   10 2
  18    9   31 1
  19   10   11 1
  20   10   32 1
  21   11   12 1
  22   11   14 1
  23   12   16 2
  24   14   15 2
  25   14   17 1
  26   15   16 1
  27   17   26 1
  28   17   18 1
  29   17   33 1
  30   18   26 1
  31   18   34 1
  32   18   35 1
  33   19   20 1
  34   20   21 ar
  35   20   25 ar
  36   21   22 ar
  37   21   36 1
  38   22   23 ar
  39   22   37 1
  40   23   24 ar
  41   23   38 1
  42   24   25 ar
  43   24   39 1
  44   25   40 1
  45   26   41 1
  46   26   42 1

#	End of record

