#	Name: ASD01913169
#	Creating user name:	WinNT
#	Creation time:	15. 06. 2019 20:01

#	Modifying user name:	WinNT
#	Modification time:	15. 06. 2019 20:01

#	Program:	/corina/corina34_cracker 3.40 0067  02.08.2006

@<TRIPOS>MOLECULE
ASD01913169
  51   54    0    0    0
SMALL
NO_CHARGES


@<TRIPOS>ATOM
   1 C1            -0.1552    -0.6957     1.5653 C.3     
   2 N2            -0.5152    -0.0166     0.3159 N.am    
   3 C3            -0.5295     1.4557     0.3274 C.3     
   4 C4            -1.6249     1.9068     1.2923 C.3     
   5 C5            -1.5345     1.1562     2.5948 C.ar    
   6 C6            -2.1603     1.7129     3.7039 C.ar    
   7 C7            -2.1236     1.0731     4.9250 C.ar    
   8 C8            -1.4598    -0.1333     5.0496 C.ar    
   9 C9            -0.8346    -0.6865     3.9513 C.ar    
  10 C10           -0.8675    -0.0414     2.7223 C.ar    
  11 C11           -0.1098    -2.0008     4.0867 C.3     
  12 F12           -0.2116    -2.4558     5.4057 F       
  13 F13           -0.6834    -2.9407     3.2237 F       
  14 F14            1.2383    -1.8261     3.7563 F       
  15 C15           -0.8200    -0.7121    -0.7976 C.2     
  16 C16           -0.6688    -2.1806    -0.8152 C.ar    
  17 C17           -1.5670    -2.9653    -1.5372 C.ar    
  18 C18           -1.4189    -4.3505    -1.5505 C.ar    
  19 C19           -0.3658    -4.9457    -0.8365 C.ar    
  20 C20            0.5217    -4.1548    -0.1212 C.ar    
  21 C21            0.3788    -2.7842    -0.1126 C.ar    
  22 O22           -1.2196    -0.1301    -1.7874 O.2     
  23 C23           -2.3370    -5.1644    -2.2889 C.1     
  24 C24           -3.0897    -5.8317    -2.8943 C.1     
  25 C25           -4.0078    -6.6456    -3.6327 C.ar    
  26 C26           -3.8522    -8.0346    -3.6409 C.ar    
  27 C27           -4.7473    -8.8059    -4.3589 C.ar    
  28 C28           -5.7708    -8.1674    -5.0470 C.ar    
  29 C29           -5.8670    -6.7890    -4.9966 C.ar    
  30 N30           -5.0056    -6.0750    -4.3013 N.ar    
  31 O31           -0.2169    -6.2936    -0.8460 O.3     
  32 C32            0.8759    -6.8308    -0.0980 C.3     
  33 H33           -0.4474    -1.7441     1.5054 H       
  34 H34            0.9220    -0.6282     1.7175 H       
  35 H35            0.4366     1.8313     0.6646 H       
  36 H36           -0.7426     1.8303    -0.6738 H       
  37 H37           -1.5156     2.9740     1.4852 H       
  38 H38           -2.5993     1.7231     0.8396 H       
  39 H39           -2.6796     2.6551     3.6087 H       
  40 H40           -2.6119     1.5135     5.7818 H       
  41 H41           -1.4306    -0.6403     6.0028 H       
  42 H42           -2.3747    -2.5012    -2.0837 H       
  43 H43            1.3304    -4.6148     0.4273 H       
  44 H44            1.0761    -2.1741     0.4424 H       
  45 H45           -3.0443    -8.4985    -3.0946 H       
  46 H46           -4.6524    -9.8815    -4.3843 H       
  47 H47           -6.4853    -8.7427    -5.6171 H       
  48 H48           -6.6623    -6.2910    -5.5312 H       
  49 H49            0.8800    -7.9169    -0.1900 H       
  50 H50            1.8128    -6.4299    -0.4847 H       
  51 H51            0.7683    -6.5554     0.9511 H       
@<TRIPOS>BOND
   1    1    2 1
   2    1   10 1
   3    1   33 1
   4    1   34 1
   5    2    3 1
   6    2   15 am
   7    3    4 1
   8    3   35 1
   9    3   36 1
  10    4    5 1
  11    4   37 1
  12    4   38 1
  13    5    6 ar
  14    5   10 ar
  15    6    7 ar
  16    6   39 1
  17    7    8 ar
  18    7   40 1
  19    8    9 ar
  20    8   41 1
  21    9   10 ar
  22    9   11 1
  23   11   12 1
  24   11   13 1
  25   11   14 1
  26   15   16 1
  27   15   22 2
  28   16   17 ar
  29   16   21 ar
  30   17   18 ar
  31   17   42 1
  32   18   19 ar
  33   18   23 1
  34   19   20 ar
  35   19   31 1
  36   20   21 ar
  37   20   43 1
  38   21   44 1
  39   23   24 3
  40   24   25 1
  41   25   26 ar
  42   25   30 ar
  43   26   27 ar
  44   26   45 1
  45   27   28 ar
  46   27   46 1
  47   28   29 ar
  48   28   47 1
  49   29   30 ar
  50   29   48 1
  51   31   32 1
  52   32   49 1
  53   32   50 1
  54   32   51 1

#	End of record

