#	Name: ASD01900443
#	Creating user name:	WinNT
#	Creation time:	15. 06. 2019 19:51

#	Modifying user name:	WinNT
#	Modification time:	15. 06. 2019 19:51

#	Program:	/corina/corina34_cracker 3.40 0067  02.08.2006

@<TRIPOS>MOLECULE
ASD01900443
  36   39    0    0    0
SMALL
NO_CHARGES


@<TRIPOS>ATOM
   1 C1             0.3986     3.4883     0.5906 C.ar    
   2 C2             0.9020     4.4103     1.5281 C.ar    
   3 C3             2.2821     4.5720     1.6447 C.ar    
   4 C4             3.0998     3.8148     0.8292 C.ar    
   5 C5             2.5343     2.9239    -0.0738 C.ar    
   6 N6             1.2318     2.7831    -0.1707 N.ar    
   7 N7            -1.3515     4.4272     1.6274 N.2     
   8 N8            -0.1775     4.9760     2.1537 N.pl3   
   9 C9            -1.0606     3.5524     0.7015 C.2     
  10 N10           -1.9777     2.8050    -0.0439 N.pl3   
  11 C11           -3.3491     3.0468     0.0889 C.ar    
  12 C12           -3.8063     4.3334     0.3450 C.ar    
  13 C13           -5.1616     4.5712     0.4755 C.ar    
  14 C14           -6.0657     3.5232     0.3504 C.ar    
  15 C15           -5.6086     2.2396     0.0948 C.ar    
  16 C16           -4.2545     2.0018    -0.0411 C.ar    
  17 F17           -5.6073     5.8219     0.7250 F       
  18 O18           -7.3995     3.7569     0.4792 O.3     
  19 C19           -8.0752     4.2074    -0.6078 C.ar    
  20 C20           -9.4329     4.4845    -0.5075 C.ar    
  21 C21          -10.1106     4.9438    -1.6230 C.ar    
  22 C22           -9.4023     5.1106    -2.8064 C.ar    
  23 C23           -8.0529     4.8151    -2.8333 C.ar    
  24 N24           -7.4336     4.3835    -1.7509 N.ar    
  25 Cl25         -10.2038     5.6835    -4.2357 Cl      
  26 H26            2.7004     5.2711     2.3537 H       
  27 H27            4.1733     3.9151     0.8929 H       
  28 H28            3.1787     2.3344    -0.7090 H       
  29 H29           -0.1346     5.6493     2.8505 H       
  30 H30           -1.6629     2.1188    -0.6530 H       
  31 H31           -3.1031     5.1473     0.4425 H       
  32 H32           -6.3118     1.4257    -0.0020 H       
  33 H33           -3.8996     1.0022    -0.2443 H       
  34 H34           -9.9525     4.3430     0.4287 H       
  35 H35          -11.1662     5.1671    -1.5749 H       
  36 H36           -7.4972     4.9426    -3.7505 H       
@<TRIPOS>BOND
   1    1    2 ar
   2    1    6 ar
   3    1    9 1
   4    2    3 ar
   5    2    8 1
   6    3    4 ar
   7    3   26 1
   8    4    5 ar
   9    4   27 1
  10    5    6 ar
  11    5   28 1
  12    7    8 1
  13    7    9 2
  14    8   29 1
  15    9   10 1
  16   10   11 1
  17   10   30 1
  18   11   12 ar
  19   11   16 ar
  20   12   13 ar
  21   12   31 1
  22   13   14 ar
  23   13   17 1
  24   14   15 ar
  25   14   18 1
  26   15   16 ar
  27   15   32 1
  28   16   33 1
  29   18   19 1
  30   19   20 ar
  31   19   24 ar
  32   20   21 ar
  33   20   34 1
  34   21   22 ar
  35   21   35 1
  36   22   23 ar
  37   22   25 1
  38   23   24 ar
  39   23   36 1

#	End of record

