#	Name: ASD01001230
#	Creating user name:	WinNT
#	Creation time:	15. 06. 2019 18:55

#	Modifying user name:	WinNT
#	Modification time:	15. 06. 2019 18:55

#	Program:	/corina/corina34_cracker 3.40 0067  02.08.2006

@<TRIPOS>MOLECULE
ASD01001230
  53   58    0    0    0
SMALL
NO_CHARGES


@<TRIPOS>ATOM
   1 C1            -0.0268     0.4245     0.3771 C.ar    
   2 C2             0.2156    -0.9374     0.4432 C.ar    
   3 C3             1.4949    -1.4641     0.3892 C.ar    
   4 C4             2.5451    -0.5575     0.2629 C.ar    
   5 C5             2.2906     0.8361     0.1943 C.ar    
   6 C6             0.9886     1.3410     0.2525 C.ar    
   7 N7             3.8972    -0.7272     0.1836 N.pl3   
   8 C8             4.5089     0.4917     0.0614 C.2     
   9 C9             3.5865     1.4771     0.0660 C.2     
  10 C10            5.9990     0.7368    -0.0734 C.3     
  11 N11            6.1863     2.1908     0.0033 N.am    
  12 C12            5.2687     3.1612    -0.6337 C.3     
  13 C13            3.8725     2.9544    -0.0347 C.3     
  14 C14            7.1376     2.8926     0.6222 C.2     
  15 N15            6.9275     4.2140     0.5368 N.am    
  16 C16            5.8235     4.4975    -0.1842 C.2     
  17 O17            5.3690     5.5956    -0.4238 O.2     
  18 O18            8.0842     2.3920     1.1972 O.2     
  19 C19            7.7907     5.2255     1.1515 C.3     
  20 C20            8.8719     5.6213     0.1792 C.ar    
  21 C21            6.4900     0.2213    -1.4016 C.ar    
  22 C22            6.0537     0.8079    -2.5735 C.ar    
  23 C23            6.5065     0.3330    -3.7961 C.ar    
  24 C24            7.3965    -0.7301    -3.8380 C.ar    
  25 C25            7.8299    -1.3134    -2.6629 C.ar    
  26 C26            7.3814    -0.8350    -1.4459 C.ar    
  27 O27            6.0783     0.9082    -4.9506 O.3     
  28 C28            8.6622     6.6678    -0.6993 C.ar    
  29 C29            9.6540     7.0308    -1.5912 C.ar    
  30 C30           10.8556     6.3475    -1.6044 C.ar    
  31 C31           11.0657     5.3016    -0.7252 C.ar    
  32 C32           10.0755     4.9415     0.1697 C.ar    
  33 H33           -1.0468     0.7768     0.4203 H       
  34 H34           -0.6222    -1.6119     0.5407 H       
  35 H35            1.6706    -2.5284     0.4428 H       
  36 H36            0.7904     2.4015     0.2012 H       
  37 H37            4.3552    -1.5818     0.2102 H       
  38 H38            6.5339     0.2472     0.7403 H       
  39 H39            5.2593     3.0559    -1.7186 H       
  40 H40            3.1280     3.4261    -0.6761 H       
  41 H41            3.8330     3.4012     0.9587 H       
  42 H42            7.1963     6.1018     1.4103 H       
  43 H43            8.2454     4.8157     2.0534 H       
  44 H44            5.3604     1.6352    -2.5383 H       
  45 H45            7.7501    -1.1017    -4.7884 H       
  46 H46            8.5229    -2.1411    -2.6951 H       
  47 H47            7.7213    -1.2924    -0.5285 H       
  48 H48            6.6318     1.6409    -5.2537 H       
  49 H49            7.7234     7.2016    -0.6890 H       
  50 H50            9.4898     7.8479    -2.2781 H       
  51 H51           11.6302     6.6307    -2.3017 H       
  52 H52           12.0043     4.7676    -0.7357 H       
  53 H53           10.2396     4.1243     0.8565 H       
@<TRIPOS>BOND
   1    1    2 ar
   2    1    6 ar
   3    1   33 1
   4    2    3 ar
   5    2   34 1
   6    3    4 ar
   7    3   35 1
   8    4    5 ar
   9    4    7 1
  10    5    6 ar
  11    5    9 1
  12    6   36 1
  13    7    8 1
  14    7   37 1
  15    8    9 2
  16    8   10 1
  17    9   13 1
  18   10   11 1
  19   10   21 1
  20   10   38 1
  21   11   12 1
  22   11   14 am
  23   12   13 1
  24   12   16 1
  25   12   39 1
  26   13   40 1
  27   13   41 1
  28   14   15 am
  29   14   18 2
  30   15   16 am
  31   15   19 1
  32   16   17 2
  33   19   20 1
  34   19   42 1
  35   19   43 1
  36   20   28 ar
  37   20   32 ar
  38   21   22 ar
  39   21   26 ar
  40   22   23 ar
  41   22   44 1
  42   23   24 ar
  43   23   27 1
  44   24   25 ar
  45   24   45 1
  46   25   26 ar
  47   25   46 1
  48   26   47 1
  49   27   48 1
  50   28   29 ar
  51   28   49 1
  52   29   30 ar
  53   29   50 1
  54   30   31 ar
  55   30   51 1
  56   31   32 ar
  57   31   52 1
  58   32   53 1

#	End of record

