#	Name: ASD01900716
#	Creating user name:	WinNT
#	Creation time:	15. 06. 2019 19:52

#	Modifying user name:	WinNT
#	Modification time:	15. 06. 2019 19:52

#	Program:	/corina/corina34_cracker 3.40 0067  02.08.2006

@<TRIPOS>MOLECULE
ASD01900716
  58   62    0    0    0
SMALL
NO_CHARGES


@<TRIPOS>ATOM
   1 C1            -0.0157     1.4087    -0.1144 C.ar    
   2 C2             0.0118     0.0197    -0.1185 C.ar    
   3 C3            -1.1603    -0.7070    -0.0674 C.ar    
   4 C4            -2.3833    -0.0520    -0.0110 C.ar    
   5 C5            -2.4090     1.3491    -0.0108 C.ar    
   6 O6            -3.5356    -0.7546     0.0507 O.3     
   7 C7            -4.7274    -0.1809    -0.1903 C.2     
   8 C8            -4.9042     1.1648    -0.2058 C.2     
   9 C9            -3.7317     2.0233     0.0366 C.2     
  10 C10           -5.8886    -1.0482    -0.4487 C.2     
  11 N11           -7.1038    -0.4998    -0.6950 N.2     
  12 C12           -8.1532    -1.2286    -0.9276 C.2     
  13 N13           -8.0870    -2.5948    -0.9361 N.pl3   
  14 C14           -6.8760    -3.2183    -0.6918 C.2     
  15 C15           -5.7398    -2.4250    -0.4459 C.2     
  16 C16           -1.2278     2.0774    -0.0545 C.ar    
  17 C17           -9.0253    -3.5586    -1.1491 C.2     
  18 C18           -8.4392    -4.7764    -1.0459 C.2     
  19 C19           -7.0848    -4.5832    -0.7582 C.2     
  20 O20            1.1469     2.1119    -0.1635 O.3     
  21 C21            2.3595     1.3577    -0.2178 C.3     
  22 C22            3.5529     2.3138    -0.2677 C.3     
  23 N23            3.6241     3.0741     0.9872 N.3     
  24 C24            4.0208     2.2047     2.1100 C.3     
  25 C25            5.2877     2.8209     2.7399 C.3     
  26 C26            5.2097     4.3064     2.2995 C.3     
  27 C27            4.5987     4.1808     0.8816 C.3     
  28 C28            3.8900     5.4790     0.4900 C.3     
  29 O29            2.9468     5.8314     1.5040 O.3     
  30 C30            2.2265     7.0358     1.2346 C.3     
  31 N31           -3.8489     3.3071     0.2803 N.2     
  32 O32           -2.7115     4.0638     0.6527 O.3     
  33 H33            0.9596    -0.4963    -0.1625 H       
  34 H34           -1.1262    -1.7865    -0.0717 H       
  35 H35           -5.8776     1.5943    -0.3911 H       
  36 H36           -9.0998    -0.7449    -1.1182 H       
  37 H37           -4.7789    -2.8782    -0.2520 H       
  38 H38           -1.2538     3.1571    -0.0508 H       
  39 H39          -10.0685    -3.3812    -1.3651 H       
  40 H40           -8.9324    -5.7298    -1.1653 H       
  41 H41           -6.3424    -5.3542    -0.6145 H       
  42 H42            2.4355     0.7277     0.6684 H       
  43 H43            2.3581     0.7314    -1.1099 H       
  44 H44            4.4715     1.7417    -0.3986 H       
  45 H45            3.4318     3.0028    -1.1036 H       
  46 H46            3.2207     2.1653     2.8491 H       
  47 H47            4.2394     1.2018     1.7431 H       
  48 H48            5.2568     2.7389     3.8264 H       
  49 H49            6.1853     2.3475     2.3420 H       
  50 H50            4.5536     4.8751     2.9584 H       
  51 H51            6.2027     4.7541     2.2585 H       
  52 H52            5.3733     3.9362     0.1548 H       
  53 H53            4.6253     6.2768     0.3848 H       
  54 H54            3.3695     5.3374    -0.4571 H       
  55 H55            1.5314     7.2337     2.0505 H       
  56 H56            2.9272     7.8658     1.1447 H       
  57 H57            1.6714     6.9264     0.3029 H       
  58 H58           -2.8964     4.9995     0.8115 H       
@<TRIPOS>BOND
   1    1    2 ar
   2    1   20 1
   3    1   16 ar
   4    2    3 ar
   5    2   33 1
   6    3    4 ar
   7    3   34 1
   8    4    5 ar
   9    4    6 1
  10    5   16 ar
  11    5    9 1
  12    6    7 1
  13    7    8 2
  14    7   10 1
  15    8    9 1
  16    8   35 1
  17    9   31 2
  18   10   11 1
  19   10   15 2
  20   11   12 2
  21   12   13 1
  22   12   36 1
  23   13   14 1
  24   13   17 1
  25   14   15 1
  26   14   19 2
  27   15   37 1
  28   16   38 1
  29   17   18 2
  30   17   39 1
  31   18   19 1
  32   18   40 1
  33   19   41 1
  34   20   21 1
  35   21   22 1
  36   21   42 1
  37   21   43 1
  38   22   23 1
  39   22   44 1
  40   22   45 1
  41   23   24 1
  42   23   27 1
  43   24   25 1
  44   24   46 1
  45   24   47 1
  46   25   26 1
  47   25   48 1
  48   25   49 1
  49   26   27 1
  50   26   50 1
  51   26   51 1
  52   27   28 1
  53   27   52 1
  54   28   29 1
  55   28   53 1
  56   28   54 1
  57   29   30 1
  58   30   55 1
  59   30   56 1
  60   30   57 1
  61   31   32 1
  62   32   58 1

#	End of record

