#	Name: ASD01340002
#	Creating user name:	WinNT
#	Creation time:	15. 06. 2019 19:16

#	Modifying user name:	WinNT
#	Modification time:	15. 06. 2019 19:16

#	Program:	/corina/corina34_cracker 3.40 0067  02.08.2006

@<TRIPOS>MOLECULE
ASD01340002
  44   47    0    0    0
SMALL
NO_CHARGES


@<TRIPOS>ATOM
   1 C1            -0.0164     1.3548     0.0095 C.ar    
   2 O2             0.0021    -0.0041     0.0020 O.3     
   3 C3             1.1739     2.0680     0.0020 C.ar    
   4 C4             1.1434     3.4461     0.0146 C.ar    
   5 C5            -1.2224     2.0336     0.0189 C.ar    
   6 C6            -1.2521     3.4218     0.0301 C.ar    
   7 C7            -2.6012     4.0912     0.0271 C.3     
   8 C8            -2.4899     5.5658     0.4129 C.3     
   9 C9            -1.3736     6.1945    -0.4208 C.3     
  10 C10           -1.3107     7.6956    -0.2433 C.3     
  11 C11           -2.5366     8.4928    -0.6748 C.3     
  12 C12           -1.9837     9.8354    -1.2148 C.3     
  13 C13           -0.4354     9.7259    -1.1587 C.3     
  14 O14            0.1579    10.3598    -2.2937 O.3     
  15 C15           -0.1973     8.2130    -1.1966 C.3     
  16 C16           -0.4290     7.6811    -2.6124 C.3     
  17 C17            1.1343     7.7343    -0.6525 C.3     
  18 C18            1.1352     6.1948    -0.7087 C.3     
  19 C19           -0.0377     5.6272     0.0771 C.3     
  20 C20           -0.0664     4.1270     0.0370 C.ar    
  21 H21            0.0832     5.9206     1.1199 H       
  22 H22           -1.5215     5.9547    -1.4738 H       
  23 H23           -1.0588     7.9352     0.7898 H       
  24 H24            0.0158    -0.4021     0.8832 H       
  25 H25            2.1193     1.5462    -0.0134 H       
  26 H26            2.0695     4.0015     0.0075 H       
  27 H27           -2.1488     1.4785     0.0171 H       
  28 H28           -3.0353     4.0149    -0.9698 H       
  29 H29           -3.2528     3.5842     0.7388 H       
  30 H30           -3.4328     6.0721     0.2064 H       
  31 H31           -2.2501     5.6515     1.4727 H       
  32 H32           -3.0744     7.9625    -1.4607 H       
  33 H33           -3.1913     8.6699     0.1785 H       
  34 H34           -2.3110     9.9882    -2.2432 H       
  35 H35           -2.3235    10.6594    -0.5872 H       
  36 H36           -0.0515    10.1564    -0.2338 H       
  37 H37           -0.0293    11.3063    -2.3581 H       
  38 H38           -1.3983     8.0234    -2.9750 H       
  39 H39            0.3565     8.0497    -3.2720 H       
  40 H40           -0.4104     6.5914    -2.5986 H       
  41 H41            1.9464     8.1270    -1.2643 H       
  42 H42            1.2532     8.0666     0.3788 H       
  43 H43            1.0605     5.8734    -1.7475 H       
  44 H44            2.0667     5.8206    -0.2839 H       
@<TRIPOS>BOND
   1    1    2 1
   2    1    3 ar
   3    1    5 ar
   4    2   24 1
   5    3    4 ar
   6    3   25 1
   7    4   20 ar
   8    4   26 1
   9    5    6 ar
  10    5   27 1
  11    6    7 1
  12    6   20 ar
  13    7    8 1
  14    7   28 1
  15    7   29 1
  16    8    9 1
  17    8   30 1
  18    8   31 1
  19    9   10 1
  20    9   22 1
  21    9   19 1
  22   10   11 1
  23   10   15 1
  24   10   23 1
  25   11   12 1
  26   11   32 1
  27   11   33 1
  28   12   13 1
  29   12   34 1
  30   12   35 1
  31   13   14 1
  32   13   15 1
  33   13   36 1
  34   14   37 1
  35   15   16 1
  36   15   17 1
  37   16   38 1
  38   16   39 1
  39   16   40 1
  40   17   18 1
  41   17   41 1
  42   17   42 1
  43   18   19 1
  44   18   43 1
  45   18   44 1
  46   19   20 1
  47   19   21 1

#	End of record

