#	Name: ASD01913811
#	Creating user name:	WinNT
#	Creation time:	15. 06. 2019 20:02

#	Modifying user name:	WinNT
#	Modification time:	15. 06. 2019 20:02

#	Program:	/corina/corina34_cracker 3.40 0067  02.08.2006

@<TRIPOS>MOLECULE
ASD01913811
  39   41    0    0    0
SMALL
NO_CHARGES


@<TRIPOS>ATOM
   1 C1            -0.0235     1.4277    -0.0312 C.ar    
   2 C2            -0.0024    -0.0041    -0.0268 C.1     
   3 C3             0.0150    -1.1780    -0.0233 C.1     
   4 C4             0.0362    -2.6098    -0.0189 C.ar    
   5 C5            -1.1338    -3.3385     0.2422 C.ar    
   6 C6             0.1561    -5.3344    -0.0290 C.ar    
   7 N7             1.2425    -4.6187    -0.2777 N.ar    
   8 C8             1.2207    -3.3021    -0.2803 C.ar    
   9 C9            -1.0629    -4.7171     0.2349 C.ar    
  10 N10            0.2332    -6.7251    -0.0390 N.am    
  11 C11           -0.8328    -7.5439    -0.0345 C.2     
  12 C12           -0.3802    -8.9874    -0.0381 C.3     
  13 C13            1.1086    -8.9190     0.3741 C.3     
  14 C14            1.4888    -7.4847    -0.0620 C.3     
  15 O15           -1.9893    -7.1785    -0.0280 O.2     
  16 C16            1.1410     2.1547    -0.2911 C.ar    
  17 N17            1.1222     3.4713    -0.2953 N.ar    
  18 C18            0.0188     4.1538    -0.0575 C.ar    
  19 C19           -1.1784     3.5083     0.2095 C.ar    
  20 C20           -1.2138     2.1235     0.2194 C.ar    
  21 C21            1.2670    -9.0979     1.8853 C.3     
  22 C22            1.9359    -9.9563    -0.3877 C.3     
  23 F23           -2.2998     4.2218     0.4514 F       
  24 H24           -2.0668    -2.8334     0.4444 H       
  25 H25            2.1272    -2.7525    -0.4868 H       
  26 H26           -1.9438    -5.3102     0.4321 H       
  27 H27           -0.9505    -9.5678     0.6870 H       
  28 H28           -0.4806    -9.4161    -1.0352 H       
  29 H29            1.9118    -7.4955    -1.0665 H       
  30 H30            2.1991    -7.0520     0.6425 H       
  31 H31            2.0649     1.6320    -0.4901 H       
  32 H32            0.0487     5.2333    -0.0709 H       
  33 H33           -2.1325     1.5941     0.4244 H       
  34 H34            0.8902   -10.0783     2.1766 H       
  35 H35            2.3211    -9.0199     2.1519 H       
  36 H36            0.7028    -8.3230     2.4041 H       
  37 H37            1.8396    -9.7820    -1.4594 H       
  38 H38            2.9831    -9.8696    -0.0982 H       
  39 H39            1.5743   -10.9564    -0.1484 H       
@<TRIPOS>BOND
   1    1    2 1
   2    1   16 ar
   3    1   20 ar
   4    2    3 3
   5    3    4 1
   6    4    5 ar
   7    4    8 ar
   8    5    9 ar
   9    5   24 1
  10    6    7 ar
  11    6   10 1
  12    6    9 ar
  13    7    8 ar
  14    8   25 1
  15    9   26 1
  16   10   11 am
  17   10   14 1
  18   11   12 1
  19   11   15 2
  20   12   13 1
  21   12   27 1
  22   12   28 1
  23   13   14 1
  24   13   21 1
  25   13   22 1
  26   14   29 1
  27   14   30 1
  28   16   17 ar
  29   16   31 1
  30   17   18 ar
  31   18   19 ar
  32   18   32 1
  33   19   20 ar
  34   19   23 1
  35   20   33 1
  36   21   34 1
  37   21   35 1
  38   21   36 1
  39   22   37 1
  40   22   38 1
  41   22   39 1

#	End of record

