#	Name: ASD01916031
#	Creating user name:	WinNT
#	Creation time:	15. 06. 2019 20:06

#	Modifying user name:	WinNT
#	Modification time:	15. 06. 2019 20:06

#	Program:	/corina/corina34_cracker 3.40 0067  02.08.2006

@<TRIPOS>MOLECULE
ASD01916031
  41   43    0    0    0
SMALL
NO_CHARGES


@<TRIPOS>ATOM
   1 C1            -0.0241     1.4086    -0.0889 C.ar    
   2 C2            -0.0007     0.0081    -0.0627 C.ar    
   3 C3            -1.2081    -0.6687    -0.0271 C.ar    
   4 C4            -2.3994     0.0632    -0.0185 C.ar    
   5 C5            -3.6932    -0.6498     0.0199 C.2     
   6 N6            -4.8414     0.0441     0.1488 N.am    
   7 O7            -3.7218    -1.8622    -0.0647 O.2     
   8 C8             1.1977     2.1545    -0.1266 C.1     
   9 C9             2.1994     2.7660    -0.1576 C.1     
  10 C10            3.4212     3.5119    -0.1953 C.ar    
  11 C11            3.3905     4.9090    -0.2213 C.ar    
  12 C12            5.8228     3.5717    -0.2370 C.ar    
  13 C13            4.5713     5.6206    -0.2576 C.ar    
  14 N14           -2.3831     1.3921    -0.0441 N.ar    
  15 C15           -1.2605     2.0696    -0.0835 C.ar    
  16 C16            4.6503     2.8466    -0.2005 C.ar    
  17 C17            5.7844     4.9547    -0.2688 C.ar    
  18 C18           -6.1295    -0.6484     0.0614 C.3     
  19 C19           -4.8015     1.4908     0.3763 C.3     
  20 C20           -6.1903    -1.9091     0.9263 C.3     
  21 C21           -7.3473     0.2799     0.2285 C.3     
  22 O22           -7.9160    -0.4549    -0.8739 O.3     
  23 C23           -6.6275    -0.8559    -1.3813 C.3     
  24 F24           -1.2347    -2.0192    -0.0013 F       
  25 H25            0.9356    -0.5301    -0.0705 H       
  26 H26            2.4446     5.4301    -0.2133 H       
  27 H27            6.7733     3.0589    -0.2456 H       
  28 H28            4.5493     6.7002    -0.2777 H       
  29 H29           -1.2888     3.1491    -0.1030 H       
  30 H30            4.6818     1.7673    -0.1757 H       
  31 H31            6.7059     5.5173    -0.2972 H       
  32 H32           -4.7077     2.0064    -0.5795 H       
  33 H33           -5.7201     1.8063     0.8708 H       
  34 H34           -3.9468     1.7360     1.0068 H       
  35 H35           -6.0285    -1.6415     1.9705 H       
  36 H36           -7.1690    -2.3767     0.8185 H       
  37 H37           -5.4168    -2.6071     0.6060 H       
  38 H38           -7.8793     0.1443     1.1701 H       
  39 H39           -7.1393     1.3254     0.0010 H       
  40 H40           -6.1997    -0.1572    -2.1003 H       
  41 H41           -6.5886    -1.8924    -1.7165 H       
@<TRIPOS>BOND
   1    1    2 ar
   2    1    8 1
   3    1   15 ar
   4    2    3 ar
   5    2   25 1
   6    3    4 ar
   7    3   24 1
   8    4   14 ar
   9    4    5 1
  10    5    6 am
  11    5    7 2
  12    6   19 1
  13    6   18 1
  14    8    9 3
  15    9   10 1
  16   10   11 ar
  17   10   16 ar
  18   11   13 ar
  19   11   26 1
  20   12   17 ar
  21   12   16 ar
  22   12   27 1
  23   13   17 ar
  24   13   28 1
  25   14   15 ar
  26   15   29 1
  27   16   30 1
  28   17   31 1
  29   18   21 1
  30   18   20 1
  31   18   23 1
  32   19   32 1
  33   19   33 1
  34   19   34 1
  35   20   35 1
  36   20   36 1
  37   20   37 1
  38   21   22 1
  39   21   38 1
  40   21   39 1
  41   22   23 1
  42   23   40 1
  43   23   41 1

#	End of record

