#	Name: ASD02560293
#	Creating user name:	WinNT
#	Creation time:	15. 06. 2019 20:25

#	Modifying user name:	WinNT
#	Modification time:	15. 06. 2019 20:25

#	Program:	/corina/corina34_cracker 3.40 0067  02.08.2006

@<TRIPOS>MOLECULE
ASD02560293
  50   52    0    0    0
SMALL
NO_CHARGES


@<TRIPOS>ATOM
   1 N1             0.4638     1.3221    -0.0981 N.ar    
   2 C2             0.4523    -0.0062    -0.0970 C.ar    
   3 C3             1.6469    -0.6916     0.1172 C.ar    
   4 C4             2.7990     0.0450     0.3204 C.ar    
   5 N5             2.7307     1.3681     0.3051 N.ar    
   6 C6             1.5847     1.9857     0.0998 C.ar    
   7 O7            -0.7032    -0.6845    -0.3005 O.3     
   8 C8            -1.8370     0.0343    -0.5035 C.ar    
   9 C9            -4.1507     1.5016    -0.9176 C.ar    
  10 C10           -3.7743     1.1376     0.3781 C.ar    
  11 C11           -2.6231     0.4087     0.5796 C.ar    
  12 C12           -2.2050     0.3983    -1.7932 C.ar    
  13 C13           -3.3542     1.1279    -2.0035 C.ar    
  14 C14           -2.2158     0.0164     1.9764 C.3     
  15 C15           -1.3453    -0.0053    -2.9632 C.3     
  16 C16           -5.3468     2.2594    -1.1318 C.1     
  17 N17           -6.2957     2.8604    -1.3016 N.1     
  18 S18            1.5508     3.7473     0.0890 S.o2    
  19 C19            1.2341     4.2045     1.8156 C.3     
  20 C20            1.1820     5.7058     1.9363 C.2     
  21 N21            0.9569     6.2780     3.1356 N.am    
  22 C22            1.0053     7.6703     3.2666 C.ar    
  23 O23            1.3428     6.3991     0.9542 O.2     
  24 C24            1.5555     9.6176     4.5532 C.ar    
  25 C25            1.5086     8.2428     4.4272 C.ar    
  26 C26            0.5553     8.4826     2.2337 C.ar    
  27 C27            0.6048     9.8562     2.3659 C.ar    
  28 C28            1.1023    10.4234     3.5251 C.ar    
  29 O29            2.8678     4.1208    -0.2922 O.2     
  30 O30            0.4326     4.0713    -0.7258 O.2     
  31 N31            0.1255    10.7226     1.2657 N.pl3   
  32 O32           -0.3124    10.2238     0.2444 O.2     
  33 O33            0.1689    11.9343     1.3816 O.2     
  34 H34            1.6719    -1.7713     0.1245 H       
  35 H35            3.7428    -0.4518     0.4899 H       
  36 H36           -4.3871     1.4244     1.2199 H       
  37 H37           -3.6414     1.4072    -3.0064 H       
  38 H38           -2.6541    -0.9502     2.2248 H       
  39 H39           -1.1294    -0.0522     2.0323 H       
  40 H40           -2.5692     0.7678     2.6825 H       
  41 H41           -1.6741    -0.9745    -3.3384 H       
  42 H42           -1.4346     0.7397    -3.7538 H       
  43 H43           -0.3054    -0.0732    -2.6437 H       
  44 H44            0.2817     3.7811     2.1348 H       
  45 H45            2.0338     3.8168     2.4467 H       
  46 H46            0.7612     5.7247     3.9079 H       
  47 H47            1.9465    10.0635     5.4558 H       
  48 H48            1.8627     7.6139     5.2306 H       
  49 H49            0.1674     8.0403     1.3280 H       
  50 H50            1.1400    11.4980     3.6261 H       
@<TRIPOS>BOND
   1    1    2 ar
   2    1    6 ar
   3    2    3 ar
   4    2    7 1
   5    3    4 ar
   6    3   34 1
   7    4    5 ar
   8    4   35 1
   9    5    6 ar
  10    6   18 1
  11    7    8 1
  12    8   12 ar
  13    8   11 ar
  14    9   10 ar
  15    9   13 ar
  16    9   16 1
  17   10   11 ar
  18   10   36 1
  19   11   14 1
  20   12   13 ar
  21   12   15 1
  22   13   37 1
  23   14   38 1
  24   14   39 1
  25   14   40 1
  26   15   41 1
  27   15   42 1
  28   15   43 1
  29   16   17 3
  30   18   19 1
  31   18   29 2
  32   18   30 2
  33   19   20 1
  34   19   44 1
  35   19   45 1
  36   20   21 am
  37   20   23 2
  38   21   22 1
  39   21   46 1
  40   22   26 ar
  41   22   25 ar
  42   24   25 ar
  43   24   28 ar
  44   24   47 1
  45   25   48 1
  46   26   27 ar
  47   26   49 1
  48   27   28 ar
  49   27   31 1
  50   28   50 1
  51   31   32 2
  52   31   33 2

#	End of record

