#	Name: ASD07930092
#	Creating user name:	WinNT
#	Creation time:	15. 06. 2019 21:11

#	Modifying user name:	WinNT
#	Modification time:	15. 06. 2019 21:11

#	Program:	/corina/corina34_cracker 3.40 0067  02.08.2006

@<TRIPOS>MOLECULE
ASD07930092
  26   26    0    0    0
SMALL
NO_CHARGES


@<TRIPOS>ATOM
   1 C1            -0.0184     1.5028     0.0103 C.2     
   2 C2             0.0021    -0.0041     0.0020 C.3     
   3 C3             1.4295    -0.4870    -0.0142 C.2     
   4 C4             1.7249    -1.9647    -0.0250 C.3     
   5 O5             1.0237     2.1235     0.0037 O.2     
   6 O6             2.3366     0.3101    -0.0186 O.2     
   7 C7            -1.2994     2.2194     0.0203 C.ar    
   8 C8            -1.3239     3.6239     0.0280 C.ar    
   9 C9            -2.5405     4.2889     0.0375 C.ar    
  10 C10           -3.7214     3.5729     0.0392 C.ar    
  11 C11           -3.7027     2.1872     0.0316 C.ar    
  12 C12           -2.5048     1.5078     0.0163 C.ar    
  13 O13           -0.1637     4.3258     0.0267 O.3     
  14 C14           -0.2676     5.7509     0.0350 C.3     
  15 F15            2.4739    -2.2988     1.1084 F       
  16 F16            0.5230    -2.6806    -0.0173 F       
  17 F17            2.4521    -2.2865    -1.1760 F       
  18 H18           -0.4983    -0.3791     0.8948 H       
  19 H19           -0.5153    -0.3696    -0.8850 H       
  20 H20           -2.5647     5.3686     0.0438 H       
  21 H21           -4.6659     4.0964     0.0469 H       
  22 H22           -4.6322     1.6374     0.0330 H       
  23 H23           -2.4955     0.4279     0.0059 H       
  24 H24           -0.8104     6.0808    -0.8509 H       
  25 H25           -0.8025     6.0711     0.9291 H       
  26 H26            0.7310     6.1881     0.0329 H       
@<TRIPOS>BOND
   1    1    2 1
   2    1    5 2
   3    1    7 1
   4    2    3 1
   5    2   18 1
   6    2   19 1
   7    3    4 1
   8    3    6 2
   9    4   15 1
  10    4   16 1
  11    4   17 1
  12    7    8 ar
  13    7   12 ar
  14    8    9 ar
  15    8   13 1
  16    9   10 ar
  17    9   20 1
  18   10   11 ar
  19   10   21 1
  20   11   12 ar
  21   11   22 1
  22   12   23 1
  23   13   14 1
  24   14   24 1
  25   14   25 1
  26   14   26 1

#	End of record

