#	Name: ASD04882363
#	Creating user name:	WinNT
#	Creation time:	15. 06. 2019 20:54

#	Modifying user name:	WinNT
#	Modification time:	15. 06. 2019 20:54

#	Program:	/corina/corina34_cracker 3.40 0067  02.08.2006

@<TRIPOS>MOLECULE
ASD04882363
  84   89    0    0    0
SMALL
NO_CHARGES


@<TRIPOS>ATOM
   1 N1            -0.0169     1.3970     0.0097 N.am    
   2 C2             0.1091     0.0021    -0.0337 C.ar    
   3 C3            -1.0285    -0.8057     0.0463 C.ar    
   4 C4            -0.9050    -2.1898     0.0034 C.ar    
   5 C5             0.3382    -2.7698    -0.1177 C.ar    
   6 C6             1.4801    -1.9677    -0.1978 C.ar    
   7 C7             1.3580    -0.5758    -0.1615 C.ar    
   8 N8            -2.2875    -0.2235     0.1697 N.3     
   9 C9            -3.1537    -0.5984    -0.9567 C.3     
  10 C10           -2.9103    -0.5823     1.4515 C.3     
  11 C11           -4.2537     0.1391     1.5825 C.3     
  12 N12           -5.1200    -0.2357     0.4561 N.3     
  13 C13           -4.4971     0.1231    -0.8257 C.3     
  14 C14            2.8118    -2.5893    -0.3264 C.2     
  15 O15            3.8047    -1.8907    -0.3960 O.2     
  16 C16            0.9214     2.1766    -0.5632 C.2     
  17 C17            0.7449     3.6396    -0.5952 C.2     
  18 O18            1.9138     1.6728    -1.0539 O.2     
  19 C19           -6.3827     0.3482     0.5799 C.ar    
  20 C20           -6.5090     1.7307     0.6235 C.ar    
  21 C21           -7.5158    -0.4523     0.6539 C.ar    
  22 C22           -8.7626     0.1282     0.7763 C.ar    
  23 C23           -8.8844     1.5051     0.8247 C.ar    
  24 C24           -7.7593     2.3049     0.7460 C.ar    
  25 N25           -0.3074     4.3382    -0.0892 N.2     
  26 C26            1.6067     4.5465    -1.1312 C.2     
  27 O27            1.0631     5.7601    -0.9457 O.3     
  28 C28           -0.1051     5.6031    -0.3071 C.2     
  29 C29           -1.0367     6.7175     0.0942 C.3     
  30 C30           -0.4935     7.7834     1.0480 C.3     
  31 C31           -0.7238     8.1218    -0.4263 C.3     
  32 C32           -7.3842    -1.9526     0.6003 C.3     
  33 N33            2.9280    -3.9314    -0.3668 N.am    
  34 C34            4.2505    -4.5487    -0.4946 C.3     
  35 C35            4.1026    -6.0714    -0.5164 C.3     
  36 C36            5.4838    -6.7160    -0.6498 C.3     
  37 N37            5.3422    -8.1740    -0.6707 N.am    
  38 C38            5.1739    -8.9250    -1.7676 C.2     
  39 C39            5.3680    -9.0529     0.5086 C.3     
  40 C40            5.1788   -10.4639    -0.0812 C.3     
  41 O41            5.0713   -10.2349    -1.5161 O.3     
  42 O42            5.1192    -8.4588    -2.8884 O.2     
  43 C43            4.2198    -8.7097     1.4598 C.3     
  44 C44            6.7139    -8.9472     1.2283 C.3     
  45 H45           -0.7815     1.8014     0.4487 H       
  46 H46           -1.7859    -2.8115     0.0654 H       
  47 H47            0.4310    -3.8453    -0.1504 H       
  48 H48            2.2386     0.0465    -0.2231 H       
  49 H49           -2.6766    -0.3112    -1.8937 H       
  50 H50           -3.3172    -1.6760    -0.9468 H       
  51 H51           -3.0710    -1.6598     1.4887 H       
  52 H52           -2.2556    -0.2835     2.2702 H       
  53 H53           -4.7308    -0.1481     2.5195 H       
  54 H54           -4.0902     1.2167     1.5726 H       
  55 H55           -4.3365     1.2005    -0.8629 H       
  56 H56           -5.1518    -0.1758    -1.6443 H       
  57 H57           -5.6306     2.3560     0.5621 H       
  58 H58           -9.6438    -0.4935     0.8339 H       
  59 H59           -9.8608     1.9566     0.9197 H       
  60 H60           -7.8578     3.3797     0.7841 H       
  61 H61            2.5488     4.3310    -1.6134 H       
  62 H62           -2.0859     6.4399     0.1947 H       
  63 H63           -1.1854     8.2073     1.7757 H       
  64 H64            0.5377     7.6786     1.3852 H       
  65 H65            0.1560     8.2396    -1.0590 H       
  66 H66           -1.5672     8.7684    -0.6684 H       
  67 H67           -7.2652    -2.3433     1.6109 H       
  68 H68           -8.2795    -2.3799     0.1487 H       
  69 H69           -6.5128    -2.2198     0.0025 H       
  70 H70            2.1360    -4.4887    -0.3113 H       
  71 H71            4.7188    -4.2159    -1.4209 H       
  72 H72            4.8714    -4.2560     0.3521 H       
  73 H73            3.6343    -6.4042     0.4099 H       
  74 H74            3.4817    -6.3641    -1.3631 H       
  75 H75            5.9521    -6.3832    -1.5761 H       
  76 H76            6.1047    -6.4233     0.1969 H       
  77 H77            6.0437   -11.0894     0.1398 H       
  78 H78            4.2673   -10.9203     0.3047 H       
  79 H79            3.2688    -8.8392     0.9432 H       
  80 H80            4.2557    -9.3705     2.3259 H       
  81 H81            4.3170    -7.6748     1.7881 H       
  82 H82            6.8737    -7.9184     1.5508 H       
  83 H83            6.7136    -9.6046     2.0978 H       
  84 H84            7.5134    -9.2435     0.5492 H       
@<TRIPOS>BOND
   1    1    2 1
   2    1   16 am
   3    1   45 1
   4    2    3 ar
   5    2    7 ar
   6    3    4 ar
   7    3    8 1
   8    4    5 ar
   9    4   46 1
  10    5    6 ar
  11    5   47 1
  12    6    7 ar
  13    6   14 1
  14    7   48 1
  15    8    9 1
  16    8   10 1
  17    9   13 1
  18    9   49 1
  19    9   50 1
  20   10   11 1
  21   10   51 1
  22   10   52 1
  23   11   12 1
  24   11   53 1
  25   11   54 1
  26   12   13 1
  27   12   19 1
  28   13   55 1
  29   13   56 1
  30   14   15 2
  31   14   33 am
  32   16   18 2
  33   16   17 1
  34   17   25 1
  35   17   26 2
  36   19   20 ar
  37   19   21 ar
  38   20   24 ar
  39   20   57 1
  40   21   22 ar
  41   21   32 1
  42   22   23 ar
  43   22   58 1
  44   23   24 ar
  45   23   59 1
  46   24   60 1
  47   25   28 2
  48   26   27 1
  49   26   61 1
  50   27   28 1
  51   28   29 1
  52   29   30 1
  53   29   31 1
  54   29   62 1
  55   30   31 1
  56   30   63 1
  57   30   64 1
  58   31   65 1
  59   31   66 1
  60   32   67 1
  61   32   68 1
  62   32   69 1
  63   33   34 1
  64   33   70 1
  65   34   35 1
  66   34   71 1
  67   34   72 1
  68   35   36 1
  69   35   73 1
  70   35   74 1
  71   36   37 1
  72   36   75 1
  73   36   76 1
  74   37   38 am
  75   37   39 1
  76   38   42 2
  77   38   41 1
  78   39   40 1
  79   39   43 1
  80   39   44 1
  81   40   41 1
  82   40   77 1
  83   40   78 1
  84   43   79 1
  85   43   80 1
  86   43   81 1
  87   44   82 1
  88   44   83 1
  89   44   84 1

#	End of record

