#	Name: ASD01030001
#	Creating user name:	WinNT
#	Creation time:	15. 06. 2019 18:58

#	Modifying user name:	WinNT
#	Modification time:	15. 06. 2019 18:58

#	Program:	/corina/corina34_cracker 3.40 0067  02.08.2006

@<TRIPOS>MOLECULE
ASD01030001
  61   60    0    0    0
SMALL
NO_CHARGES


@<TRIPOS>ATOM
   1 C1             3.1939     2.7102     0.0671 C.2     
   2 C2             2.7713     1.2713     0.2161 C.3     
   3 C3             3.9837     0.3601     0.0142 C.3     
   4 C4             3.5547    -1.1007     0.1654 C.3     
   5 C5             4.7670    -2.0118    -0.0365 C.3     
   6 C6             4.3380    -3.4726     0.1147 C.3     
   7 C7             5.5504    -4.3838    -0.0872 C.3     
   8 C8             5.1213    -5.8446     0.0640 C.3     
   9 C9             6.3337    -6.7557    -0.1379 C.3     
  10 C10            5.9023    -8.2170     0.0012 C.3     
  11 C11            7.0812    -9.1314    -0.3377 C.3     
  12 C12            6.6175   -10.5893    -0.3201 C.3     
  13 C13            7.7965   -11.5036    -0.6590 C.3     
  14 C14            7.3327   -12.9616    -0.6414 C.3     
  15 C15            8.5117   -13.8759    -0.9803 C.3     
  16 C16            8.0479   -15.3338    -0.9628 C.3     
  17 C17            9.2269   -16.2482    -1.3017 C.3     
  18 C18            8.7631   -17.7061    -1.2841 C.3     
  19 O19            4.3465     2.9792    -0.1757 O.2     
  20 O20            2.2888     3.6926     0.1987 O.3     
  21 O21            5.4793    -8.4630     1.3438 O.3     
  22 S22            3.9802    -8.6821     1.4903 S.o2    
  23 O23            3.7171    -8.7364     2.8857 O.2     
  24 O24            3.3519    -7.7543     0.6165 O.2     
  25 O25            3.6715   -10.0673     0.9405 O.3     
  26 H26            2.3612     1.1145     1.2137 H       
  27 H27            2.0121     1.0365    -0.5299 H       
  28 H28            4.3939     0.5169    -0.9835 H       
  29 H29            4.7429     0.5949     0.7602 H       
  30 H30            3.1445    -1.2574     1.1631 H       
  31 H31            2.7954    -1.3354    -0.5806 H       
  32 H32            5.1772    -1.8550    -1.0342 H       
  33 H33            5.5263    -1.7770     0.7095 H       
  34 H34            3.9278    -3.6294     1.1124 H       
  35 H35            3.5787    -3.7074    -0.6313 H       
  36 H36            5.9605    -4.2270    -1.0849 H       
  37 H37            6.3096    -4.1490     0.6588 H       
  38 H38            4.7112    -6.0014     1.0617 H       
  39 H39            4.3621    -6.0794    -0.6820 H       
  40 H40            6.7491    -6.5927    -1.1324 H       
  41 H41            7.0894    -6.5269     0.6135 H       
  42 H42            5.0776    -8.4191    -0.6823 H       
  43 H43            7.4607    -8.8827    -1.3288 H       
  44 H44            7.8721    -8.9928     0.3995 H       
  45 H45            6.2380   -10.8380     0.6710 H       
  46 H46            5.8266   -10.7279    -1.0573 H       
  47 H47            8.1759   -11.2550    -1.6501 H       
  48 H48            8.5874   -11.3651     0.0782 H       
  49 H49            6.9532   -13.2102     0.3497 H       
  50 H50            6.5418   -13.1002    -1.3786 H       
  51 H51            8.8911   -13.6273    -1.9714 H       
  52 H52            9.3026   -13.7373    -0.2432 H       
  53 H53            7.6685   -15.5825     0.0283 H       
  54 H54            7.2570   -15.4724    -1.6999 H       
  55 H55            9.6064   -15.9995    -2.2928 H       
  56 H56           10.0178   -16.1096    -0.5645 H       
  57 H57            8.3837   -17.9547    -0.2930 H       
  58 H58            7.9723   -17.8447    -2.0212 H       
  59 H59            9.6031   -18.3575    -1.5255 H       
  60 H60            2.6072     4.5997     0.0946 H       
  61 H61            2.7363   -10.3092     0.9863 H       
@<TRIPOS>BOND
   1    1    2 1
   2    1   19 2
   3    1   20 1
   4    2    3 1
   5    2   26 1
   6    2   27 1
   7    3    4 1
   8    3   28 1
   9    3   29 1
  10    4    5 1
  11    4   30 1
  12    4   31 1
  13    5    6 1
  14    5   32 1
  15    5   33 1
  16    6    7 1
  17    6   34 1
  18    6   35 1
  19    7    8 1
  20    7   36 1
  21    7   37 1
  22    8    9 1
  23    8   38 1
  24    8   39 1
  25    9   10 1
  26    9   40 1
  27    9   41 1
  28   10   11 1
  29   10   21 1
  30   10   42 1
  31   11   12 1
  32   11   43 1
  33   11   44 1
  34   12   13 1
  35   12   45 1
  36   12   46 1
  37   13   14 1
  38   13   47 1
  39   13   48 1
  40   14   15 1
  41   14   49 1
  42   14   50 1
  43   15   16 1
  44   15   51 1
  45   15   52 1
  46   16   17 1
  47   16   53 1
  48   16   54 1
  49   17   18 1
  50   17   55 1
  51   17   56 1
  52   18   57 1
  53   18   58 1
  54   18   59 1
  55   20   60 1
  56   21   22 1
  57   22   23 2
  58   22   24 2
  59   22   25 1
  60   25   61 1

#	End of record

