#	Name: ASD08170788
#	Creating user name:	WinNT
#	Creation time:	15. 06. 2019 21:17

#	Modifying user name:	WinNT
#	Modification time:	15. 06. 2019 21:17

#	Program:	/corina/corina34_cracker 3.40 0067  02.08.2006

@<TRIPOS>MOLECULE
ASD08170788
  51   52    0    0    0
SMALL
NO_CHARGES


@<TRIPOS>ATOM
   1 C1            -0.0162     1.3436     0.0094 C.2     
   2 N2             0.0021    -0.0041     0.0020 N.am    
   3 C3             1.2158    -0.6830    -0.0132 C.2     
   4 S4             1.4076    -2.3853    -0.0242 S.3     
   5 C5             3.1581    -2.1679    -0.0397 C.2     
   6 C6             4.1900    -3.2660    -0.0555 C.3     
   7 C7             7.0114    -6.2545     2.7867 C.3     
   8 C8             7.3689    -6.6282     4.2022 C.2     
   9 S9             8.6538    -5.9107     5.1748 S.3     
  10 C10            8.2316    -6.9535     6.4667 C.2     
  11 N11            2.3916    -0.1314    -0.0271 N.2     
  12 N12            3.3971    -0.8949    -0.0352 N.2     
  13 N13            6.7844    -7.5301     4.9251 N.2     
  14 N14            7.2362    -7.6990     6.0918 N.2     
  15 O15            1.0258     1.9642     0.0028 O.2     
  16 C16           -1.3314     2.0792     0.0197 C.3     
  17 N17            8.8522    -6.9952     7.7107 N.am    
  18 C18            8.4254    -7.8647     8.6478 C.2     
  19 C19            9.0978    -7.9100     9.9957 C.3     
  20 O20            7.5001    -8.6107     8.4064 O.2     
  21 C21           10.3937    -8.7166     9.8923 C.3     
  22 N22           -1.0826     3.5270     0.0264 N.3     
  23 C23            4.5530    -3.6454     1.3816 C.3     
  24 C24            5.9637    -5.1397     2.8027 C.3     
  25 N25            8.2009    -8.5469    10.9693 N.3     
  26 C26           -2.1227     1.6920     1.2706 C.3     
  27 C27            5.6007    -4.7603     1.3656 C.3     
  28 H28           -0.8313    -0.5005     0.0073 H       
  29 H29            3.7854    -4.1375    -0.5701 H       
  30 H30            5.0824    -2.9185    -0.5760 H       
  31 H31            7.9038    -5.9070     2.2662 H       
  32 H32            6.6068    -7.1260     2.2721 H       
  33 H33           -1.9035     1.8130    -0.8691 H       
  34 H34            9.5922    -6.3986     7.9038 H       
  35 H35            9.3264    -6.8954    10.3220 H       
  36 H36           11.0593    -8.2440     9.1700 H       
  37 H37           10.8801    -8.7494    10.8672 H       
  38 H38           10.1651    -9.7312     9.5661 H       
  39 H39           -0.5065     3.7985    -0.7563 H       
  40 H40           -1.9497     4.0429     0.0333 H       
  41 H41            4.9576    -2.7739     1.8963 H       
  42 H42            3.6606    -3.9929     1.9021 H       
  43 H43            5.0713    -5.4871     3.3232 H       
  44 H44            6.3683    -4.2682     3.3174 H       
  45 H45            7.9739    -9.4893    10.6891 H       
  46 H46            8.6024    -8.5316    11.8948 H       
  47 H47           -1.5505     1.9582     2.1593 H       
  48 H48           -3.0739     2.2241     1.2780 H       
  49 H49           -2.3073     0.6177     1.2656 H       
  50 H50            5.1961    -5.6318     0.8510 H       
  51 H51            6.4931    -4.4128     0.8451 H       
@<TRIPOS>BOND
   1    1    2 am
   2    1   15 2
   3    1   16 1
   4    2    3 1
   5    2   28 1
   6    3    4 1
   7    3   11 2
   8    4    5 1
   9    5    6 1
  10    5   12 2
  11    6   23 1
  12    6   29 1
  13    6   30 1
  14    7    8 1
  15    7   24 1
  16    7   31 1
  17    7   32 1
  18    8    9 1
  19    8   13 2
  20    9   10 1
  21   10   17 1
  22   10   14 2
  23   11   12 1
  24   13   14 1
  25   16   22 1
  26   16   26 1
  27   16   33 1
  28   17   18 am
  29   17   34 1
  30   18   19 1
  31   18   20 2
  32   19   21 1
  33   19   25 1
  34   19   35 1
  35   21   36 1
  36   21   37 1
  37   21   38 1
  38   22   39 1
  39   22   40 1
  40   23   27 1
  41   23   41 1
  42   23   42 1
  43   24   27 1
  44   24   43 1
  45   24   44 1
  46   25   45 1
  47   25   46 1
  48   26   47 1
  49   26   48 1
  50   26   49 1
  51   27   50 1
  52   27   51 1

#	End of record

