#	Name: ASD00170318
#	Creating user name:	WinNT
#	Creation time:	15. 06. 2019 18:31

#	Modifying user name:	WinNT
#	Modification time:	15. 06. 2019 18:31

#	Program:	/corina/corina34_cracker 3.40 0067  02.08.2006

@<TRIPOS>MOLECULE
ASD00170318
  38   40    0    0    0
SMALL
NO_CHARGES


@<TRIPOS>ATOM
   1 S1             0.1576     1.6248     0.6731 S.3     
   2 N2            -0.1178     0.3150    -0.3760 N.pl3   
   3 C3             1.1096    -0.1394    -0.7262 C.2     
   4 N4             2.1486     0.4583    -0.2379 N.2     
   5 C5             1.9247     1.4944     0.5873 C.2     
   6 N6             2.8188     2.2464     1.1974 N.2     
   7 C7            -1.3529    -0.1881    -0.7902 C.ar    
   8 C8             1.2584    -1.2899    -1.6430 C.ar    
   9 C9            -2.2259     0.6165    -1.5120 C.ar    
  10 C10           -3.4465     0.1156    -1.9200 C.ar    
  11 C11           -3.8003    -1.1850    -1.6109 C.ar    
  12 C12           -2.9339    -1.9887    -0.8921 C.ar    
  13 C13           -1.7094    -1.4966    -0.4863 C.ar    
  14 C14            0.2894    -1.5409    -2.6156 C.ar    
  15 C15            0.4345    -2.6157    -3.4682 C.ar    
  16 C16            1.5376    -3.4440    -3.3606 C.ar    
  17 C17            2.5015    -3.2009    -2.3984 C.ar    
  18 C18            2.3713    -2.1261    -1.5433 C.ar    
  19 C19            4.2478     1.9868     1.0056 C.3     
  20 C20            4.8906     3.1761     0.2891 C.3     
  21 C21           -4.3943     0.9876    -2.7026 C.3     
  22 H22           -1.9504     1.6325    -1.7535 H       
  23 H23           -4.7555    -1.5741    -1.9312 H       
  24 H24           -3.2138    -3.0037    -0.6518 H       
  25 H25           -1.0334    -2.1246     0.0750 H       
  26 H26           -0.5722    -0.8953    -2.7003 H       
  27 H27           -0.3148    -2.8113    -4.2210 H       
  28 H28            1.6465    -4.2841    -4.0305 H       
  29 H29            3.3598    -3.8516    -2.3191 H       
  30 H30            3.1246    -1.9372    -0.7928 H       
  31 H31            4.7249     1.8459     1.9755 H       
  32 H32            4.3761     1.0873     0.4035 H       
  33 H33            4.4135     3.3170    -0.6808 H       
  34 H34            4.7623     4.0756     0.8911 H       
  35 H35            5.9538     2.9829     0.1464 H       
  36 H36           -4.1967     0.8738    -3.7684 H       
  37 H37           -5.4212     0.6904    -2.4897 H       
  38 H38           -4.2506     2.0292    -2.4156 H       
@<TRIPOS>BOND
   1    1    2 1
   2    1    5 1
   3    2    3 1
   4    2    7 1
   5    3    4 2
   6    3    8 1
   7    4    5 1
   8    5    6 2
   9    6   19 1
  10    7    9 ar
  11    7   13 ar
  12    8   14 ar
  13    8   18 ar
  14    9   10 ar
  15    9   22 1
  16   10   11 ar
  17   10   21 1
  18   11   12 ar
  19   11   23 1
  20   12   13 ar
  21   12   24 1
  22   13   25 1
  23   14   15 ar
  24   14   26 1
  25   15   16 ar
  26   15   27 1
  27   16   17 ar
  28   16   28 1
  29   17   18 ar
  30   17   29 1
  31   18   30 1
  32   19   20 1
  33   19   31 1
  34   19   32 1
  35   20   33 1
  36   20   34 1
  37   20   35 1
  38   21   36 1
  39   21   37 1
  40   21   38 1

#	End of record

