#	Name: ASD01911080
#	Creating user name:	WinNT
#	Creation time:	15. 06. 2019 19:57

#	Modifying user name:	WinNT
#	Modification time:	15. 06. 2019 19:57

#	Program:	/corina/corina34_cracker 3.40 0067  02.08.2006

@<TRIPOS>MOLECULE
ASD01911080
  50   53    0    0    0
SMALL
NO_CHARGES


@<TRIPOS>ATOM
   1 C1            -0.1580     1.8217     0.2718 C.ar    
   2 C2            -0.6107     0.5574     0.5993 C.ar    
   3 C3             0.2713    -0.5066     0.6284 C.ar    
   4 C4             1.6060    -0.3063     0.3295 C.ar    
   5 C5             2.0586     0.9579     0.0011 C.ar    
   6 C6             1.1768     2.0221    -0.0266 C.ar    
   7 C7             2.5678    -1.4660     0.3622 C.3     
   8 C8             3.6506    -1.1923     1.3740 C.2     
   9 N9             3.9307    -1.9137     2.4326 N.2     
  10 C10            4.9615    -1.2916     3.0321 C.2     
  11 N11            5.2503    -0.2432     2.3208 N.2     
  12 O12            4.5126    -0.1711     1.3606 O.3     
  13 C13            5.6540    -1.7298     4.2968 C.3     
  14 C14            7.1337    -1.9899     4.0052 C.3     
  15 C15            7.8309    -2.4664     5.2815 C.3     
  16 C16            7.7336    -1.3733     6.3503 C.3     
  17 N17            6.3205    -1.0145     6.5326 N.am    
  18 C18            5.5320    -0.6283     5.3545 C.3     
  19 C19            5.7582    -1.0392     7.7572 C.2     
  20 O20            4.6081    -0.6744     7.9054 O.2     
  21 C21            6.5395    -1.5097     8.9193 C.ar    
  22 C22            7.8112    -0.9881     9.1662 C.ar    
  23 C23            8.5359    -1.4306    10.2520 C.ar    
  24 C24            8.0044    -2.3918    11.0983 C.ar    
  25 C25            6.7424    -2.9133    10.8575 C.ar    
  26 C26            6.0066    -2.4733     9.7782 C.ar    
  27 F27            8.7189    -2.8220    12.1611 F       
  28 C28            3.1961    -1.6466    -1.0211 C.3     
  29 H29           -0.8479     2.6522     0.2447 H       
  30 H30           -1.6535     0.4009     0.8329 H       
  31 H31           -0.0823    -1.4943     0.8850 H       
  32 H32            3.1015     1.1145    -0.2317 H       
  33 H33            1.5305     3.0099    -0.2829 H       
  34 H34            2.0326    -2.3742     0.6395 H       
  35 H35            5.1902    -2.6438     4.6677 H       
  36 H36            7.2228    -2.7560     3.2350 H       
  37 H37            7.6025    -1.0693     3.6574 H       
  38 H38            7.3467    -3.3734     5.6436 H       
  39 H39            8.8793    -2.6738     5.0676 H       
  40 H40            8.1406    -1.7446     7.2908 H       
  41 H41            8.2946    -0.4961     6.0280 H       
  42 H42            5.9135     0.3096     4.9509 H       
  43 H43            4.4864    -0.5081     5.6380 H       
  44 H44            8.2262    -0.2397     8.5074 H       
  45 H45            9.5196    -1.0282    10.4436 H       
  46 H46            6.3333    -3.6620    11.5197 H       
  47 H47            5.0236    -2.8799     9.5918 H       
  48 H48            3.7313    -0.7385    -1.2984 H       
  49 H49            3.8918    -2.4854    -0.9974 H       
  50 H50            2.4130    -1.8446    -1.7528 H       
@<TRIPOS>BOND
   1    1    2 ar
   2    1    6 ar
   3    1   29 1
   4    2    3 ar
   5    2   30 1
   6    3    4 ar
   7    3   31 1
   8    4    5 ar
   9    4    7 1
  10    5    6 ar
  11    5   32 1
  12    6   33 1
  13    7    8 1
  14    7   28 1
  15    7   34 1
  16    8    9 2
  17    8   12 1
  18    9   10 1
  19   10   11 2
  20   10   13 1
  21   11   12 1
  22   13   14 1
  23   13   18 1
  24   13   35 1
  25   14   15 1
  26   14   36 1
  27   14   37 1
  28   15   16 1
  29   15   38 1
  30   15   39 1
  31   16   17 1
  32   16   40 1
  33   16   41 1
  34   17   18 1
  35   17   19 am
  36   18   42 1
  37   18   43 1
  38   19   20 2
  39   19   21 1
  40   21   22 ar
  41   21   26 ar
  42   22   23 ar
  43   22   44 1
  44   23   24 ar
  45   23   45 1
  46   24   25 ar
  47   24   27 1
  48   25   26 ar
  49   25   46 1
  50   26   47 1
  51   28   48 1
  52   28   49 1
  53   28   50 1

#	End of record

