#	Name: ASD03220004
#	Creating user name:	WinNT
#	Creation time:	15. 06. 2019 20:34

#	Modifying user name:	WinNT
#	Modification time:	15. 06. 2019 20:34

#	Program:	/corina/corina34_cracker 3.40 0067  02.08.2006

@<TRIPOS>MOLECULE
ASD03220004
  45   46    0    0    0
SMALL
NO_CHARGES


@<TRIPOS>ATOM
   1 C1            -0.0187     1.5258     0.0104 C.3     
   2 C2             0.0021    -0.0041     0.0020 C.3     
   3 C3             0.7182    -0.4975    -1.2568 C.3     
   4 C4             0.7390    -2.0273    -1.2652 C.3     
   5 C5             1.4551    -2.5207    -2.5240 C.3     
   6 O6             1.4745    -3.9496    -2.5319 O.3     
   7 C7             2.0782    -4.5526    -3.5896 C.ar    
   8 C8             2.1333    -5.9370    -3.6616 C.ar    
   9 C9             2.7476    -6.5476    -4.7378 C.ar    
  10 C10            3.3072    -5.7802    -5.7427 C.ar    
  11 C11            3.2540    -4.4003    -5.6730 C.ar    
  12 C12            2.6354    -3.7850    -4.6020 C.ar    
  13 C13            3.9767    -6.4489    -6.9155 C.3     
  14 O14            3.0153    -6.6725    -7.9489 O.3     
  15 C15            3.4579    -7.2707    -9.0826 C.ar    
  16 C16            4.7884    -7.6362    -9.2020 C.ar    
  17 C17            5.2425    -8.2463   -10.3569 C.ar    
  18 C18            4.3769    -8.4987   -11.4047 C.ar    
  19 C19            3.0416    -8.1422   -11.3085 C.ar    
  20 C20            2.5674    -7.5273   -10.1383 C.ar    
  21 C21            1.1546    -7.1451   -10.0238 C.2     
  22 O22            0.3850    -7.3622   -10.9503 O.co2   
  23 O23            0.7465    -6.6095    -9.0019 O.co2   
  24 O24            2.1947    -8.3906   -12.3381 O.3     
  25 H25            1.0039     1.9031     0.0027 H       
  26 H26           -0.5459     1.8868    -0.8726 H       
  27 H27           -0.5289     1.8773     0.9072 H       
  28 H28            0.5293    -0.3651     0.8851 H       
  29 H29           -1.0205    -0.3814     0.0098 H       
  30 H30            0.1910    -0.1364    -2.1398 H       
  31 H31            1.7408    -0.1202    -1.2645 H       
  32 H32            1.2661    -2.3884    -0.3821 H       
  33 H33           -0.2836    -2.4046    -1.2575 H       
  34 H34            0.9279    -2.1597    -3.4071 H       
  35 H35            2.4777    -2.1435    -2.5317 H       
  36 H36            1.6967    -6.5368    -2.8768 H       
  37 H37            2.7911    -7.6252    -4.7941 H       
  38 H38            3.6924    -3.8031    -6.4588 H       
  39 H39            2.5940    -2.7071    -4.5480 H       
  40 H40            4.7734    -5.8079    -7.2931 H       
  41 H41            4.3976    -7.4030    -6.5982 H       
  42 H42            5.4740    -7.4437    -8.3901 H       
  43 H43            6.2818    -8.5274   -10.4411 H       
  44 H44            4.7430    -8.9754   -12.3019 H       
  45 H45            1.7625    -9.2544   -12.2922 H       
@<TRIPOS>BOND
   1    1    2 1
   2    1   25 1
   3    1   26 1
   4    1   27 1
   5    2    3 1
   6    2   28 1
   7    2   29 1
   8    3    4 1
   9    3   30 1
  10    3   31 1
  11    4    5 1
  12    4   32 1
  13    4   33 1
  14    5    6 1
  15    5   34 1
  16    5   35 1
  17    6    7 1
  18    7    8 ar
  19    7   12 ar
  20    8    9 ar
  21    8   36 1
  22    9   10 ar
  23    9   37 1
  24   10   11 ar
  25   10   13 1
  26   11   12 ar
  27   11   38 1
  28   12   39 1
  29   13   14 1
  30   13   40 1
  31   13   41 1
  32   14   15 1
  33   15   16 ar
  34   15   20 ar
  35   16   17 ar
  36   16   42 1
  37   17   18 ar
  38   17   43 1
  39   18   19 ar
  40   18   44 1
  41   19   20 ar
  42   19   24 1
  43   20   21 1
  44   21   22 ar
  45   21   23 ar
  46   24   45 1

#	End of record

