#	Name: ASD01883862
#	Creating user name:	WinNT
#	Creation time:	15. 06. 2019 19:47

#	Modifying user name:	WinNT
#	Modification time:	15. 06. 2019 19:47

#	Program:	/corina/corina34_cracker 3.40 0067  02.08.2006

@<TRIPOS>MOLECULE
ASD01883862
  48   52    0    0    0
SMALL
NO_CHARGES


@<TRIPOS>ATOM
   1 O1             0.3653     1.3456     0.4206 O.3     
   2 C2             0.3921    -0.0107     0.4701 C.2     
   3 C3             1.5647    -2.0709     0.7821 C.2     
   4 C4             1.5613    -0.6656     0.7360 C.2     
   5 C5            -0.7880    -0.7518     0.2532 C.2     
   6 C6            -0.7639    -2.0986     0.3023 C.2     
   7 N7             2.0008    -4.1521     0.9400 N.2     
   8 N8             2.5082    -2.9717     1.0085 N.2     
   9 N9             0.3989    -2.7630     0.5618 N.pl3   
  10 C10            0.7233    -4.0826     0.6718 C.2     
  11 C11           -0.2186    -5.2482     0.5128 C.3     
  12 C12           -0.8317    -5.5973     1.8705 C.3     
  13 C13           -1.9087    -6.6836     1.9009 C.3     
  14 C14           -0.5131    -6.9742     2.4565 C.3     
  15 C15            2.8317     0.1086     0.9762 C.3     
  16 F16            2.5993     1.4690     0.7468 F       
  17 F17            3.2477    -0.0768     2.2990 F       
  18 F18            3.8275    -0.3476     0.1059 F       
  19 C19           -0.4069     2.0161     1.4187 C.3     
  20 C20           -0.2198     3.5281     1.2778 C.3     
  21 C21           -0.5601     4.1020    -0.0734 C.ar    
  22 C22           -2.1794     4.6016    -1.7650 C.ar    
  23 C23           -1.1846     5.1548    -2.5533 C.ar    
  24 C24            0.1240     5.1756    -2.1013 C.ar    
  25 C25            0.4349     4.6490    -0.8620 C.ar    
  26 C26           -1.8662     4.0760    -0.5259 C.ar    
  27 F27           -1.4895     5.6685    -3.7650 F       
  28 C28           -0.5094     4.3932     2.5061 C.3     
  29 C29            0.9345     4.1719     2.0484 C.3     
  30 H30           -1.7153    -0.2379     0.0471 H       
  31 H31           -1.6733    -2.6567     0.1350 H       
  32 H32           -1.0114    -4.9819    -0.1862 H       
  33 H33            0.3297    -6.1088     0.1297 H       
  34 H34           -0.9361    -4.7654     2.5670 H       
  35 H35           -2.7214    -6.5666     2.6178 H       
  36 H36           -2.1804    -7.1496     0.9538 H       
  37 H37            0.1334    -7.6314     1.8748 H       
  38 H38           -0.4076    -7.0484     3.5388 H       
  39 H39           -1.4603     1.7669     1.2913 H       
  40 H40           -0.0757     1.6996     2.4077 H       
  41 H41           -3.2004     4.5848    -2.1165 H       
  42 H42            0.9009     5.6065    -2.7155 H       
  43 H43            1.4555     4.6651    -0.5092 H       
  44 H44           -2.6420     3.6444     0.0892 H       
  45 H45           -0.9457     5.3776     2.3367 H       
  46 H46           -0.8332     3.8852     3.4145 H       
  47 H47            1.5606     3.5184     2.6558 H       
  48 H48            1.4475     5.0109     1.5783 H       
@<TRIPOS>BOND
   1    1    2 1
   2    1   19 1
   3    2    5 1
   4    2    4 2
   5    3    4 1
   6    3    9 1
   7    3    8 2
   8    4   15 1
   9    5    6 2
  10    5   30 1
  11    6    9 1
  12    6   31 1
  13    7    8 1
  14    7   10 2
  15    9   10 1
  16   10   11 1
  17   11   12 1
  18   11   32 1
  19   11   33 1
  20   12   13 1
  21   12   14 1
  22   12   34 1
  23   13   14 1
  24   13   35 1
  25   13   36 1
  26   14   37 1
  27   14   38 1
  28   15   16 1
  29   15   17 1
  30   15   18 1
  31   19   20 1
  32   19   39 1
  33   19   40 1
  34   20   21 1
  35   20   28 1
  36   20   29 1
  37   21   26 ar
  38   21   25 ar
  39   22   23 ar
  40   22   26 ar
  41   22   41 1
  42   23   24 ar
  43   23   27 1
  44   24   25 ar
  45   24   42 1
  46   25   43 1
  47   26   44 1
  48   28   29 1
  49   28   45 1
  50   28   46 1
  51   29   47 1
  52   29   48 1

#	End of record

