#	Name: ASD06020153
#	Creating user name:	WinNT
#	Creation time:	15. 06. 2019 21:04

#	Modifying user name:	WinNT
#	Modification time:	15. 06. 2019 21:04

#	Program:	/corina/corina34_cracker 3.40 0067  02.08.2006

@<TRIPOS>MOLECULE
ASD06020153
  35   35    0    0    0
SMALL
NO_CHARGES


@<TRIPOS>ATOM
   1 C1            -0.0508     1.4674     0.0076 C.2     
   2 C2            -0.0222    -0.0045     0.0009 C.ar    
   3 C3            -0.8138    -0.7184    -0.9072 C.ar    
   4 C4            -0.7835    -2.0952    -0.9101 C.ar    
   5 C5             0.0318    -2.7781    -0.0123 C.ar    
   6 C6             0.8197    -2.0751     0.8921 C.ar    
   7 C7             0.8014    -0.6956     0.8990 C.ar    
   8 O8            -0.8486     2.0565     0.7101 O.2     
   9 O9             0.8115     2.1617    -0.7611 O.3     
  10 F10            1.5717    -0.0127     1.7739 F       
  11 Cl11          -1.8325     0.1309    -2.0273 Cl      
  12 N12            0.0581    -4.1721    -0.0195 N.am    
  13 C13           -0.0456    -4.8420    -1.1844 C.2     
  14 O14           -0.2466    -4.2358    -2.2180 O.2     
  15 O15            0.0735    -6.1830    -1.2026 O.3     
  16 C16           -0.0492    -6.8382    -2.4926 C.3     
  17 C17            1.0371    -6.3161    -3.4352 C.3     
  18 C18            0.1131    -8.3491    -2.3147 C.3     
  19 C19           -1.4269    -6.5397    -3.0872 C.3     
  20 C20            0.7264     3.6100    -0.7043 C.3     
  21 H21           -1.3938    -2.6462    -1.6103 H       
  22 H22            1.4504    -2.6095     1.5870 H       
  23 H23            0.1510    -4.6598     0.8138 H       
  24 H24            2.0186    -6.5287    -3.0115 H       
  25 H25            0.9450    -6.8079    -4.4035 H       
  26 H26            0.9215    -5.2397    -3.5619 H       
  27 H27           -0.6608    -8.7211    -1.6432 H       
  28 H28            0.0210    -8.8409    -3.2831 H       
  29 H29            1.0946    -8.5618    -1.8911 H       
  30 H30           -1.5425    -5.4633    -3.2140 H       
  31 H31           -1.5190    -7.0315    -4.0556 H       
  32 H32           -2.2008    -6.9117    -2.4158 H       
  33 H33           -0.2676     3.9282    -1.0186 H       
  34 H34            0.9092     3.9450     0.3168 H       
  35 H35            1.4738     4.0443    -1.3684 H       
@<TRIPOS>BOND
   1    1    2 1
   2    1    8 2
   3    1    9 1
   4    2    3 ar
   5    2    7 ar
   6    3    4 ar
   7    3   11 1
   8    4    5 ar
   9    4   21 1
  10    5    6 ar
  11    5   12 1
  12    6    7 ar
  13    6   22 1
  14    7   10 1
  15    9   20 1
  16   12   13 am
  17   12   23 1
  18   13   14 2
  19   13   15 1
  20   15   16 1
  21   16   17 1
  22   16   19 1
  23   16   18 1
  24   17   24 1
  25   17   25 1
  26   17   26 1
  27   18   27 1
  28   18   28 1
  29   18   29 1
  30   19   30 1
  31   19   31 1
  32   19   32 1
  33   20   33 1
  34   20   34 1
  35   20   35 1

#	End of record

