#	Name: ASD07930109
#	Creating user name:	WinNT
#	Creation time:	15. 06. 2019 21:11

#	Modifying user name:	WinNT
#	Modification time:	15. 06. 2019 21:11

#	Program:	/corina/corina34_cracker 3.40 0067  02.08.2006

@<TRIPOS>MOLECULE
ASD07930109
  62   65    0    0    0
SMALL
NO_CHARGES


@<TRIPOS>ATOM
   1 C1            -0.0652     1.5957     0.8263 C.2     
   2 C2            -0.0756     0.1243     0.6707 C.2     
   3 N3             1.1174     2.2713     0.6267 N.am    
   4 N4             1.0948    -0.5482     0.7839 N.am    
   5 C5             2.3175     0.2074     1.0912 C.3     
   6 C6             2.3132     1.4999     0.2614 C.3     
   7 C7            -1.2056     2.2619     1.1545 C.2     
   8 C8            -1.2003     3.6542     1.3048 C.2     
   9 C9            -0.0354     4.3472     1.1200 C.2     
  10 C10            1.1773     3.6075     0.7616 C.2     
  11 O11           -1.1129    -0.4688     0.4462 O.2     
  12 O12            2.2299     4.1976     0.5874 O.2     
  13 C13            0.6800     6.4359     2.2085 C.2     
  14 N14            0.4632     7.7091     2.0210 N.2     
  15 C15           -0.3533     7.8709     0.9690 C.2     
  16 C16           -0.6577     6.6533     0.4813 C.2     
  17 N17           -0.0040     5.7370     1.2648 N.pl3   
  18 C18           -0.8454     9.1881     0.4268 C.3     
  19 C19            0.8740    -2.3412    -0.8646 C.3     
  20 C20            1.1411    -2.0012     0.6030 C.3     
  21 C21            0.0746    -2.6587     1.4811 C.3     
  22 O22           -0.4504    -1.9343    -1.2144 O.3     
  23 C23           -0.5801    -0.7468    -1.8628 C.ar    
  24 C24           -1.8146    -0.3604    -2.3642 C.ar    
  25 C25           -1.9445     0.8470    -3.0224 C.ar    
  26 C26           -0.8443     1.6711    -3.1817 C.ar    
  27 C27            0.3877     1.2873    -2.6828 C.ar    
  28 C28            0.5204     0.0829    -2.0189 C.ar    
  29 C29           -4.2447    -0.5868    -2.8028 C.3     
  30 C30           -3.0130    -1.2576    -2.1914 C.3     
  31 C31           -2.7569    -2.5919    -2.8950 C.3     
  32 C32           -3.2541    -1.5051    -0.7009 C.3     
  33 F33           -4.0243    -0.3606    -4.1657 F       
  34 F34           -5.3572    -1.4198    -2.6423 F       
  35 F35           -4.4790     0.6332    -2.1594 F       
  36 Cl36          -1.0100     3.1881    -4.0093 Cl      
  37 H37            2.3387     0.4539     2.1528 H       
  38 H38            3.1919    -0.3903     0.8336 H       
  39 H39            2.2838     1.2557    -0.8005 H       
  40 H40            3.2083     2.0818     0.4814 H       
  41 H41           -2.1235     1.7117     1.3001 H       
  42 H42           -2.1090     4.1770     1.5642 H       
  43 H43            1.3025     6.0094     2.9812 H       
  44 H44           -1.2943     6.4394    -0.3644 H       
  45 H45           -0.1498     9.5525    -0.3291 H       
  46 H46           -1.8298     9.0518    -0.0209 H       
  47 H47           -0.9125     9.9127     1.2383 H       
  48 H48            1.5932    -1.8187    -1.4953 H       
  49 H49            0.9748    -3.4164    -1.0126 H       
  50 H50            2.1257    -2.3717     0.8884 H       
  51 H51           -0.9100    -2.2883     1.1957 H       
  52 H52            0.1090    -3.7398     1.3465 H       
  53 H53            0.2648    -2.4165     2.5267 H       
  54 H54           -2.9053     1.1480    -3.4132 H       
  55 H55            1.2453     1.9316    -2.8085 H       
  56 H56            1.4813    -0.2141    -1.6253 H       
  57 H57           -1.8793    -3.0697    -2.4594 H       
  58 H58           -3.6236    -3.2408    -2.7700 H       
  59 H59           -2.5851    -2.4156    -3.9568 H       
  60 H60           -3.3007    -0.5504    -0.1770 H       
  61 H61           -4.1955    -2.0383    -0.5688 H       
  62 H62           -2.4379    -2.1028    -0.2952 H       
@<TRIPOS>BOND
   1    1    2 1
   2    1    3 1
   3    1    7 2
   4    2    4 am
   5    2   11 2
   6    3    6 1
   7    3   10 am
   8    4    5 1
   9    4   20 1
  10    5    6 1
  11    5   37 1
  12    5   38 1
  13    6   39 1
  14    6   40 1
  15    7    8 1
  16    7   41 1
  17    8    9 2
  18    8   42 1
  19    9   10 1
  20    9   17 1
  21   10   12 2
  22   13   14 2
  23   13   17 1
  24   13   43 1
  25   14   15 1
  26   15   16 2
  27   15   18 1
  28   16   17 1
  29   16   44 1
  30   18   45 1
  31   18   46 1
  32   18   47 1
  33   19   20 1
  34   19   22 1
  35   19   48 1
  36   19   49 1
  37   20   21 1
  38   20   50 1
  39   21   51 1
  40   21   52 1
  41   21   53 1
  42   22   23 1
  43   23   24 ar
  44   23   28 ar
  45   24   25 ar
  46   24   30 1
  47   25   26 ar
  48   25   54 1
  49   26   27 ar
  50   26   36 1
  51   27   28 ar
  52   27   55 1
  53   28   56 1
  54   29   30 1
  55   29   33 1
  56   29   34 1
  57   29   35 1
  58   30   31 1
  59   30   32 1
  60   31   57 1
  61   31   58 1
  62   31   59 1
  63   32   60 1
  64   32   61 1
  65   32   62 1

#	End of record

