#	Name: ASD01814176
#	Creating user name:	WinNT
#	Creation time:	15. 06. 2019 19:31

#	Modifying user name:	WinNT
#	Modification time:	15. 06. 2019 19:31

#	Program:	/corina/corina34_cracker 3.40 0067  02.08.2006

@<TRIPOS>MOLECULE
ASD01814176
  56   60    0    0    0
SMALL
NO_CHARGES


@<TRIPOS>ATOM
   1 N1            -0.2508     2.4402     3.3112 N.2     
   2 C2            -0.3210     1.4592     4.1799 C.2     
   3 C3             0.7716     1.1722     5.0125 C.2     
   4 C4             1.9002     1.9173     4.9115 C.2     
   5 N5             1.9464     2.9325     3.9989 N.pl3   
   6 C6             0.8588     3.1828     3.2027 C.2     
   7 N7             2.9398     3.8578     3.6625 N.2     
   8 C8             2.4864     4.6412     2.7047 C.2     
   9 C9             1.1948     4.2564     2.3866 C.2     
  10 C10            2.8730     5.8080     1.8294 C.3     
  11 N11            1.7329     6.1096     0.9582 N.am    
  12 C12            0.6743     5.1511     1.2912 C.3     
  13 C13            1.6699     7.0829     0.0281 C.2     
  14 O14            0.6969     7.1700    -0.6958 O.2     
  15 C15            2.7816     8.0427    -0.1117 C.ar    
  16 C16            2.5183     9.4150    -0.2229 C.ar    
  17 C17            4.1027     7.5898    -0.1282 C.ar    
  18 C18            5.1368     8.4917    -0.2586 C.ar    
  19 C19            4.8723     9.8464    -0.3735 C.ar    
  20 C20            3.5709    10.3082    -0.3534 C.ar    
  21 O21            1.2395     9.8672    -0.2035 O.3     
  22 C22            1.0522    11.2839    -0.2068 C.3     
  23 C23           -0.4845    13.1400     0.4535 C.3     
  24 C24           -0.2839    11.6232     0.4570 C.3     
  25 C25            1.0493    11.7945    -1.6490 C.3     
  26 C26            0.8487    13.3113    -1.6526 C.3     
  27 C27           -0.4874    13.6507    -0.9888 C.3     
  28 C28            3.0869     1.6295     5.7946 C.3     
  29 Cl29           0.6791    -0.1251     6.1623 Cl      
  30 C30           -1.5801     0.6377     4.2842 C.3     
  31 O31           -0.2812    11.1462     1.8041 O.3     
  32 H32            3.1034     6.6744     2.4494 H       
  33 H33            3.7406     5.5444     1.2245 H       
  34 H34            0.4261     4.5544     0.4134 H       
  35 H35           -0.2105     5.6844     1.6388 H       
  36 H36            4.3138     6.5345    -0.0385 H       
  37 H37            6.1581     8.1405    -0.2708 H       
  38 H38            5.6887    10.5461    -0.4750 H       
  39 H39            3.3728    11.3664    -0.4394 H       
  40 H40            1.8632    11.7589     0.3452 H       
  41 H41           -1.4363    13.3817     0.9264 H       
  42 H42            0.3265    13.6150     1.0055 H       
  43 H43           -1.0949    11.1481    -0.0950 H       
  44 H44            2.0011    11.5528    -2.1220 H       
  45 H45            0.2383    11.3195    -2.2011 H       
  46 H46            1.6597    13.7864    -1.1006 H       
  47 H47            0.8467    13.6752    -2.6801 H       
  48 H48           -1.2983    13.1756    -1.5408 H       
  49 H49           -0.6302    14.7312    -0.9913 H       
  50 H50            2.8568     0.7897     6.4502 H       
  51 H51            3.9489     1.3813     5.1753 H       
  52 H52            3.3135     2.5093     6.3969 H       
  53 H53           -2.3134     1.0039     3.5657 H       
  54 H54           -1.3516    -0.4063     4.0700 H       
  55 H55           -1.9860     0.7214     5.2923 H       
  56 H56           -1.0993    11.3270     2.2870 H       
@<TRIPOS>BOND
   1    1    2 2
   2    1    6 1
   3    2    3 1
   4    2   30 1
   5    3    4 2
   6    3   29 1
   7    4    5 1
   8    4   28 1
   9    5    7 1
  10    5    6 1
  11    6    9 2
  12    7    8 2
  13    8   10 1
  14    8    9 1
  15    9   12 1
  16   10   11 1
  17   10   32 1
  18   10   33 1
  19   11   12 1
  20   11   13 am
  21   12   34 1
  22   12   35 1
  23   13   14 2
  24   13   15 1
  25   15   17 ar
  26   15   16 ar
  27   16   20 ar
  28   16   21 1
  29   17   18 ar
  30   17   36 1
  31   18   19 ar
  32   18   37 1
  33   19   20 ar
  34   19   38 1
  35   20   39 1
  36   21   22 1
  37   22   25 1
  38   22   24 1
  39   22   40 1
  40   23   24 1
  41   23   27 1
  42   23   41 1
  43   23   42 1
  44   24   31 1
  45   24   43 1
  46   25   26 1
  47   25   44 1
  48   25   45 1
  49   26   27 1
  50   26   46 1
  51   26   47 1
  52   27   48 1
  53   27   49 1
  54   28   50 1
  55   28   51 1
  56   28   52 1
  57   30   53 1
  58   30   54 1
  59   30   55 1
  60   31   56 1

#	End of record

