#	Name: ASD01720114
#	Creating user name:	WinNT
#	Creation time:	15. 06. 2019 19:23

#	Modifying user name:	WinNT
#	Modification time:	15. 06. 2019 19:23

#	Program:	/corina/corina34_cracker 3.40 0067  02.08.2006

@<TRIPOS>MOLECULE
ASD01720114
 107  111    0    0    0
SMALL
NO_CHARGES


@<TRIPOS>ATOM
   1 C1             0.7260     7.3738    -0.6531 C.ar    
   2 C2            -0.1896     7.5077    -1.6764 C.ar    
   3 C3             0.0799     6.9536    -2.9141 C.ar    
   4 C4             1.2635     6.2762    -3.1195 C.ar    
   5 C5             2.1901     6.1445    -2.0921 C.ar    
   6 C6             1.9155     6.6874    -0.8572 C.ar    
   7 C7             2.8605     6.5546     0.3106 C.3     
   8 C8             3.4722     5.4158    -2.3972 C.3     
   9 C9             4.1402     4.9291    -1.1122 C.3     
  10 N10            4.1560     6.0503    -0.1572 N.am    
  11 C11            5.3141     6.5908     0.2706 C.2     
  12 C12            5.2954     7.8220     1.1394 C.3     
  13 O13            6.3713     6.0864    -0.0437 O.2     
  14 C14            6.7307     8.2263     1.4820 C.3     
  15 C15            6.7120     9.4575     2.3508 C.2     
  16 C16            7.9766    10.0478     2.8179 C.ar    
  17 O17            5.6550     9.9618     2.6650 O.2     
  18 C18           10.3570    11.1593     3.6963 C.ar    
  19 C19           10.3785    10.0316     2.8942 C.ar    
  20 C20            9.1979     9.4724     2.4529 C.ar    
  21 C21            7.9634    11.1903     3.6243 C.ar    
  22 C22            9.1525    11.7376     4.0575 C.ar    
  23 C23            5.5518     4.4906    -1.4060 C.2     
  24 N24            6.0397     3.3677    -0.8426 N.am    
  25 O25            6.2487     5.1482    -2.1495 O.2     
  26 C26            7.4119     2.9415    -1.1282 C.3     
  27 C27            7.4333     2.1383    -2.4032 C.2     
  28 C28            7.9291     2.0803     0.0258 C.3     
  29 N29            8.5966     1.6389    -2.8656 N.am    
  30 O30            6.4038     1.9413    -3.0132 O.2     
  31 C31            8.6175     0.8581    -4.1050 C.3     
  32 C32           10.0506     0.4130    -4.4033 C.3     
  33 C33           10.5166    -0.5340    -3.3277 C.ar    
  34 C34           10.0924    -0.2840    -5.7388 C.ar    
  35 C35            9.2296    -1.3322    -5.9987 C.ar    
  36 C36            9.2679    -1.9716    -7.2237 C.ar    
  37 C37           10.1688    -1.5623    -8.1890 C.ar    
  38 C38           11.0310    -0.5135    -7.9294 C.ar    
  39 C39           10.9897     0.1287    -6.7060 C.ar    
  40 C40           10.1831    -2.5107    -2.0184 C.ar    
  41 C41            9.7556    -1.6421    -3.0051 C.ar    
  42 C42           11.7079    -0.2978    -2.6675 C.ar    
  43 C43           12.1354    -1.1665    -1.6808 C.ar    
  44 C44           11.3713    -2.2711    -1.3539 C.ar    
  45 C45            8.0252     2.9311     1.2938 C.3     
  46 C46            8.5424     2.0699     2.4478 C.3     
  47 C47            8.6385     2.9207     3.7158 C.3     
  48 N48            9.1337     2.0961     4.8208 N.am    
  49 C49            9.2998     2.6375     6.0438 C.2     
  50 O50            9.0387     3.8095     6.2300 O.2     
  51 O51            9.7549     1.8796     7.0593 O.3     
  52 C52            9.9093     2.5291     8.3488 C.3     
  53 C53            8.5551     3.0688     8.8134 C.3     
  54 C54           10.4327     1.5172     9.3701 C.3     
  55 C55           10.9028     3.6857     8.2216 C.3     
  56 H56            0.5179     7.8100     0.3127 H       
  57 H57           -1.1131     8.0427    -1.5112 H       
  58 H58           -0.6348     7.0507    -3.7180 H       
  59 H59            1.4720     5.8441    -4.0870 H       
  60 H60            2.9982     7.5294     0.7784 H       
  61 H61            2.4421     5.8595     1.0385 H       
  62 H62            3.2546     4.5590    -3.0348 H       
  63 H63            4.1510     6.0886    -2.9214 H       
  64 H64            3.5741     4.0963    -0.6950 H       
  65 H65            4.8062     8.6364     0.6050 H       
  66 H66            4.7485     7.6101     2.0581 H       
  67 H67            7.2199     7.4119     2.0163 H       
  68 H68            7.2776     8.4382     0.5632 H       
  69 H69           11.2850    11.5927     4.0388 H       
  70 H70           11.3224     9.5863     2.6163 H       
  71 H71            9.2163     8.5922     1.8273 H       
  72 H72            7.0244    11.6429     3.9067 H       
  73 H73            9.1439    12.6173     4.6840 H       
  74 H74            5.4823     2.8418    -0.2479 H       
  75 H75            8.0489     3.8188    -1.2407 H       
  76 H76            7.2429     1.2507     0.1960 H       
  77 H77            8.9154     1.6902    -0.2256 H       
  78 H78            9.4201     1.7964    -2.3777 H       
  79 H79            7.9805    -0.0192    -3.9925 H       
  80 H80            8.2490     1.4717    -4.9271 H       
  81 H81           10.7042     1.2849    -4.4279 H       
  82 H82            8.5257    -1.6520    -5.2445 H       
  83 H83            8.5943    -2.7910    -7.4265 H       
  84 H84           10.1993    -2.0623    -9.1458 H       
  85 H85           11.7351    -0.1939    -8.6835 H       
  86 H86           11.6608     0.9505    -6.5045 H       
  87 H87            9.5881    -3.3760    -1.7659 H       
  88 H88            8.8268    -1.8288    -3.5237 H       
  89 H89           12.3049     0.5652    -2.9228 H       
  90 H90           13.0665    -0.9823    -1.1655 H       
  91 H91           11.7053    -2.9498    -0.5831 H       
  92 H92            8.7115     3.7606     1.1236 H       
  93 H93            7.0389     3.3212     1.5452 H       
  94 H94            7.8561     1.2403     2.6180 H       
  95 H95            9.5287     1.6798     2.1964 H       
  96 H96            9.3248     3.7502     3.5456 H       
  97 H97            7.6522     3.3108     3.9672 H       
  98 H98            9.3421     1.1604     4.6722 H       
  99 H99            7.8473     2.2448     8.9040 H       
 100 H100           8.6710     3.5563     9.7813 H       
 101 H101           8.1823     3.7897     8.0858 H       
 102 H102          11.3974     1.1327     9.0391 H       
 103 H103          10.5486     2.0048    10.3380 H       
 104 H104           9.7249     0.6932     9.4607 H       
 105 H105          10.5300     4.4066     7.4940 H       
 106 H106          11.0187     4.1732     9.1895 H       
 107 H107          11.8675     3.3012     7.8906 H       
@<TRIPOS>BOND
   1    1    2 ar
   2    1    6 ar
   3    1   56 1
   4    2    3 ar
   5    2   57 1
   6    3    4 ar
   7    3   58 1
   8    4    5 ar
   9    4   59 1
  10    5    6 ar
  11    5    8 1
  12    6    7 1
  13    7   10 1
  14    7   60 1
  15    7   61 1
  16    8    9 1
  17    8   62 1
  18    8   63 1
  19    9   10 1
  20    9   23 1
  21    9   64 1
  22   10   11 am
  23   11   12 1
  24   11   13 2
  25   12   14 1
  26   12   65 1
  27   12   66 1
  28   14   15 1
  29   14   67 1
  30   14   68 1
  31   15   16 1
  32   15   17 2
  33   16   21 ar
  34   16   20 ar
  35   18   19 ar
  36   18   22 ar
  37   18   69 1
  38   19   20 ar
  39   19   70 1
  40   20   71 1
  41   21   22 ar
  42   21   72 1
  43   22   73 1
  44   23   24 am
  45   23   25 2
  46   24   26 1
  47   24   74 1
  48   26   27 1
  49   26   28 1
  50   26   75 1
  51   27   29 am
  52   27   30 2
  53   28   45 1
  54   28   76 1
  55   28   77 1
  56   29   31 1
  57   29   78 1
  58   31   32 1
  59   31   79 1
  60   31   80 1
  61   32   33 1
  62   32   34 1
  63   32   81 1
  64   33   42 ar
  65   33   41 ar
  66   34   35 ar
  67   34   39 ar
  68   35   36 ar
  69   35   82 1
  70   36   37 ar
  71   36   83 1
  72   37   38 ar
  73   37   84 1
  74   38   39 ar
  75   38   85 1
  76   39   86 1
  77   40   41 ar
  78   40   44 ar
  79   40   87 1
  80   41   88 1
  81   42   43 ar
  82   42   89 1
  83   43   44 ar
  84   43   90 1
  85   44   91 1
  86   45   46 1
  87   45   92 1
  88   45   93 1
  89   46   47 1
  90   46   94 1
  91   46   95 1
  92   47   48 1
  93   47   96 1
  94   47   97 1
  95   48   49 am
  96   48   98 1
  97   49   50 2
  98   49   51 1
  99   51   52 1
 100   52   53 1
 101   52   54 1
 102   52   55 1
 103   53   99 1
 104   53  100 1
 105   53  101 1
 106   54  102 1
 107   54  103 1
 108   54  104 1
 109   55  105 1
 110   55  106 1
 111   55  107 1

#	End of record

