#	Name: ASD05720260
#	Creating user name:	WinNT
#	Creation time:	15. 06. 2019 21:02

#	Modifying user name:	WinNT
#	Modification time:	15. 06. 2019 21:02

#	Program:	/corina/corina34_cracker 3.40 0067  02.08.2006

@<TRIPOS>MOLECULE
ASD05720260
  83   86    0    0    0
SMALL
NO_CHARGES


@<TRIPOS>ATOM
   1 C1             0.5119     1.0237     1.1164 C.2     
   2 N2             0.4122    -0.2391     0.6808 N.am    
   3 C3             1.6580    -0.6134    -0.0049 C.3     
   4 C4             2.5297     0.6535     0.0955 C.3     
   5 N5             1.6824     1.6071     0.8270 N.am    
   6 O6            -0.3811     1.5906     1.7157 O.2     
   7 C7             2.0587     2.9775     1.1828 C.3     
   8 C8             2.7352     2.9807     2.5551 C.3     
   9 N9             3.1125     4.3548     2.9118 N.3     
  10 C10            3.5483     4.4350     4.3181 C.3     
  11 C11            4.9746     5.0242     4.3219 C.3     
  12 C12            5.0473     5.7722     2.9648 C.3     
  13 C13            4.2102     4.8435     2.0503 C.3     
  14 C14            1.3817    -0.9606    -1.4691 C.3     
  15 C15            0.5224    -2.2245    -1.5401 C.3     
  16 C16            0.6397     0.1988    -2.1369 C.3     
  17 C17           -1.6778    -3.1433     0.6617 C.2     
  18 N18           -0.6243    -2.3357     0.5053 N.2     
  19 C19           -0.6921    -1.0636     0.8499 C.2     
  20 C20           -1.8851    -0.5415     1.3900 C.2     
  21 C21           -2.9530    -1.3558     1.5497 C.2     
  22 N22           -2.8523    -2.6692     1.1834 N.pl3   
  23 N23           -3.7636    -3.7303     1.2267 N.2     
  24 C24           -3.1914    -4.8116     0.7573 C.2     
  25 C25           -1.8788    -4.5014     0.3811 C.2     
  26 C26           -0.8882    -5.4341    -0.2016 C.ar    
  27 C27           -0.6489    -6.6680     0.4062 C.ar    
  28 C28            0.2725    -7.5353    -0.1368 C.ar    
  29 C29            0.9670    -7.1812    -1.2934 C.ar    
  30 C30            0.7285    -5.9487    -1.9011 C.ar    
  31 C31           -0.1968    -5.0827    -1.3625 C.ar    
  32 N32            3.4781    -9.0331    -3.1490 N.pl3   
  33 N33            2.6749    -7.8969    -2.9593 N.2     
  34 C34            1.9599    -8.1156    -1.8770 C.2     
  35 N35            2.2776    -9.3227    -1.3893 N.2     
  36 C36            3.1866    -9.8797    -2.1451 C.2     
  37 H37            2.1383    -1.4495     0.5036 H       
  38 H38            3.4427     0.4464     0.6537 H       
  39 H39            2.7656     1.0352    -0.8979 H       
  40 H40            2.7493     3.3700     0.4364 H       
  41 H41            1.1662     3.6023     1.2162 H       
  42 H42            2.0446     2.5881     3.3015 H       
  43 H43            3.6277     2.3559     2.5217 H       
  44 H44            2.8767     5.0859     4.8779 H       
  45 H45            3.5573     3.4390     4.7608 H       
  46 H46            5.1024     5.7188     5.1522 H       
  47 H47            5.7196     4.2297     4.3645 H       
  48 H48            4.5930     6.7603     3.0387 H       
  49 H49            6.0764     5.8428     2.6125 H       
  50 H50            4.8172     4.0090     1.6993 H       
  51 H51            3.8090     5.4037     1.2057 H       
  52 H52            2.3257    -1.1336    -1.9859 H       
  53 H53           -0.4947    -1.9904    -1.2258 H       
  54 H54            0.5093    -2.5979    -2.5641 H       
  55 H55            0.9403    -2.9855    -0.8812 H       
  56 H56           -0.3043     0.3718    -1.6201 H       
  57 H57            1.2519     1.0992    -2.0863 H       
  58 H58            0.4428    -0.0485    -3.1801 H       
  59 H59           -1.9455     0.4988     1.6739 H       
  60 H60           -3.8748    -0.9730     1.9622 H       
  61 H61           -3.6570    -5.7823     0.6714 H       
  62 H62           -1.1861    -6.9420     1.3021 H       
  63 H63            0.4577    -8.4899     0.3333 H       
  64 H64            1.2666    -5.6751    -2.7966 H       
  65 H65           -0.3844    -4.1301    -1.8354 H       
  66 H66            4.1151    -9.1803    -3.8656 H       
  67 H67            3.6281   -10.8531    -1.9903 H       
  68 C68           12.2478    13.7485    11.2990 C.2     
  69 C69           12.2683    12.2417    11.2907 C.3     
  70 O70           13.2859    14.3668    11.2924 O.2     
  71 O71           11.0764    14.4038    11.3081 O.3     
  72 F72           13.5934    11.7933    11.2757 F       
  73 F73           11.6261    11.7603    12.4366 F       
  74 F74           11.6043    11.7725    10.1522 F       
  75 H75           11.1139    15.3700    11.3132 H       
  76 C76           19.7649    22.3583    18.5834 C.2     
  77 C77           19.7853    20.8514    18.5751 C.3     
  78 O78           20.8029    22.9766    18.5768 O.2     
  79 O79           18.5934    23.0135    18.5925 O.3     
  80 F80           21.1104    20.4031    18.5601 F       
  81 F81           19.1431    20.3700    19.7210 F       
  82 F82           19.1213    20.3823    17.4366 F       
  83 H83           18.6309    23.9798    18.5976 H       
@<TRIPOS>BOND
   1    1    2 am
   2    1    5 am
   3    1    6 2
   4    2    3 1
   5    2   19 1
   6    3    4 1
   7    3   14 1
   8    3   37 1
   9    4    5 1
  10    4   38 1
  11    4   39 1
  12    5    7 1
  13    7    8 1
  14    7   40 1
  15    7   41 1
  16    8    9 1
  17    8   42 1
  18    8   43 1
  19    9   10 1
  20    9   13 1
  21   10   11 1
  22   10   44 1
  23   10   45 1
  24   11   12 1
  25   11   46 1
  26   11   47 1
  27   12   13 1
  28   12   48 1
  29   12   49 1
  30   13   50 1
  31   13   51 1
  32   14   15 1
  33   14   16 1
  34   14   52 1
  35   15   53 1
  36   15   54 1
  37   15   55 1
  38   16   56 1
  39   16   57 1
  40   16   58 1
  41   17   18 1
  42   17   22 1
  43   17   25 2
  44   18   19 2
  45   19   20 1
  46   20   21 2
  47   20   59 1
  48   21   22 1
  49   21   60 1
  50   22   23 1
  51   23   24 2
  52   24   25 1
  53   24   61 1
  54   25   26 1
  55   26   27 ar
  56   26   31 ar
  57   27   28 ar
  58   27   62 1
  59   28   29 ar
  60   28   63 1
  61   29   30 ar
  62   29   34 1
  63   30   31 ar
  64   30   64 1
  65   31   65 1
  66   32   33 1
  67   32   36 1
  68   32   66 1
  69   33   34 2
  70   34   35 1
  71   35   36 2
  72   36   67 1
  73   68   69 1
  74   68   70 2
  75   68   71 1
  76   69   72 1
  77   69   73 1
  78   69   74 1
  79   71   75 1
  80   76   77 1
  81   76   78 2
  82   76   79 1
  83   77   80 1
  84   77   81 1
  85   77   82 1
  86   79   83 1

#	End of record

