#	Name: ASD01883259
#	Creating user name:	WinNT
#	Creation time:	15. 06. 2019 19:46

#	Modifying user name:	WinNT
#	Modification time:	15. 06. 2019 19:46

#	Program:	/corina/corina34_cracker 3.40 0067  02.08.2006

@<TRIPOS>MOLECULE
ASD01883259
  54   56    0    0    0
SMALL
NO_CHARGES


@<TRIPOS>ATOM
   1 N1            -0.0162     1.3417     0.0094 N.am    
   2 C2             0.0021    -0.0041     0.0020 C.2     
   3 C3            -1.2173    -0.7277     0.0102 C.2     
   4 C4            -2.4258    -0.0122     0.0261 C.2     
   5 C5            -2.3788     1.3947     0.0332 C.2     
   6 C6            -1.1846     2.0316     0.0299 C.2     
   7 O7             1.0655    -0.6001    -0.0121 O.2     
   8 C8            -1.2166    -2.1597     0.0021 C.1     
   9 N9            -1.2161    -3.2957    -0.0044 N.1     
  10 C10            1.2511     2.0767     0.0013 C.3     
  11 C11            1.6785     2.3403    -1.4440 C.3     
  12 C12            3.0020     3.1079    -1.4525 C.3     
  13 C13            3.4925     3.2627    -2.8934 C.3     
  14 C14            2.7932     4.4914    -0.8334 C.3     
  15 C15           -3.7235    -0.7236     0.0347 C.ar    
  16 C16           -4.5706    -0.6173     1.1396 C.ar    
  17 C17           -5.7784    -1.2789     1.1474 C.ar    
  18 C18           -6.1560    -2.0561     0.0504 C.ar    
  19 C19           -5.3087    -2.1624    -1.0546 C.ar    
  20 C20           -4.1033    -1.4964    -1.0645 C.ar    
  21 C21           -7.4527    -2.7670     0.0590 C.2     
  22 N22           -7.8171    -3.5170    -0.9998 N.am    
  23 C23           -9.1017    -4.2213    -0.9913 C.3     
  24 C24           -9.2664    -4.9815    -2.2821 C.ar    
  25 C25           -8.8201    -6.2891    -2.3975 C.ar    
  26 C26           -8.9887    -6.9549    -3.5968 C.ar    
  27 N27           -9.5655    -6.3605    -4.6229 N.ar    
  28 C28          -10.0019    -5.1183    -4.5493 C.ar    
  29 C29           -9.8729    -4.3919    -3.3806 C.ar    
  30 O30           -8.1900    -2.6748     1.0209 O.2     
  31 H31           -3.2954     1.9657     0.0450 H       
  32 H32           -1.1611     3.1113     0.0354 H       
  33 H33            1.1239     3.0261     0.5214 H       
  34 H34            2.0167     1.4864     0.5046 H       
  35 H35            1.8057     1.3909    -1.9642 H       
  36 H36            0.9128     2.9307    -1.9474 H       
  37 H37            3.7442     2.5588    -0.8731 H       
  38 H38            2.7503     3.8118    -3.4729 H       
  39 H39            4.4354     3.8096    -2.8995 H       
  40 H40            3.6413     2.2771    -3.3345 H       
  41 H41            2.4437     4.3811     0.1931 H       
  42 H42            3.7360     5.0382    -0.8395 H       
  43 H43            2.0510     5.0405    -1.4129 H       
  44 H44           -4.2785    -0.0165     1.9882 H       
  45 H45           -6.4335    -1.1969     2.0022 H       
  46 H46           -5.6005    -2.7637    -1.9029 H       
  47 H47           -3.4482    -1.5783    -1.9192 H       
  48 H48           -7.2287    -3.5906    -1.7675 H       
  49 H49           -9.1286    -4.9178    -0.1534 H       
  50 H50           -9.9114    -3.4987    -0.8894 H       
  51 H51           -8.3464    -6.7811    -1.5608 H       
  52 H52           -8.6439    -7.9737    -3.6948 H       
  53 H53          -10.4688    -4.6646    -5.4110 H       
  54 H54          -10.2326    -3.3750    -3.3264 H       
@<TRIPOS>BOND
   1    1    2 am
   2    1   10 1
   3    1    6 1
   4    2    3 1
   5    2    7 2
   6    3    4 2
   7    3    8 1
   8    4    5 1
   9    4   15 1
  10    5    6 2
  11    5   31 1
  12    6   32 1
  13    8    9 3
  14   10   11 1
  15   10   33 1
  16   10   34 1
  17   11   12 1
  18   11   35 1
  19   11   36 1
  20   12   13 1
  21   12   14 1
  22   12   37 1
  23   13   38 1
  24   13   39 1
  25   13   40 1
  26   14   41 1
  27   14   42 1
  28   14   43 1
  29   15   16 ar
  30   15   20 ar
  31   16   17 ar
  32   16   44 1
  33   17   18 ar
  34   17   45 1
  35   18   19 ar
  36   18   21 1
  37   19   20 ar
  38   19   46 1
  39   20   47 1
  40   21   22 am
  41   21   30 2
  42   22   23 1
  43   22   48 1
  44   23   24 1
  45   23   49 1
  46   23   50 1
  47   24   25 ar
  48   24   29 ar
  49   25   26 ar
  50   25   51 1
  51   26   27 ar
  52   26   52 1
  53   27   28 ar
  54   28   29 ar
  55   28   53 1
  56   29   54 1

#	End of record

