#	Name: ASD01870036
#	Creating user name:	WinNT
#	Creation time:	15. 06. 2019 19:38

#	Modifying user name:	WinNT
#	Modification time:	15. 06. 2019 19:38

#	Program:	/corina/corina34_cracker 3.40 0067  02.08.2006

@<TRIPOS>MOLECULE
ASD01870036
  37   40    0    0    0
SMALL
NO_CHARGES


@<TRIPOS>ATOM
   1 C1            -0.0167     1.3774     0.0096 C.ar    
   2 C2             0.0021    -0.0041     0.0020 C.ar    
   3 N3             1.1354    -0.6695    -0.0124 N.ar    
   4 C4             2.3261    -0.0578    -0.0204 C.ar    
   5 C5             2.3957     1.3311    -0.0137 C.ar    
   6 C6             1.1852     2.0719     0.0019 C.ar    
   7 S7             3.9418    -0.7500    -0.0390 S.3     
   8 C8             4.7122     0.8264    -0.0377 C.2     
   9 C9             3.7719     1.8348    -0.0237 C.2     
  10 C10            6.0887     1.1764    -0.0485 C.2     
  11 N11            6.4262     2.4813    -0.0448 N.am    
  12 C12            5.4568     3.4337    -0.0308 C.2     
  13 N13            4.1958     3.1282    -0.0203 N.2     
  14 N14            1.2027     3.4594     0.0096 N.3     
  15 C15            7.7764     2.8558    -0.0548 C.ar    
  16 O16            6.9494     0.3121    -0.0607 O.2     
  17 C17            0.5126     4.0012    -1.1686 C.3     
  18 C18            0.6188     3.9864     1.2503 C.3     
  19 C19            8.4577     3.0356     1.1428 C.ar    
  20 C20            9.7896     3.4051     1.1295 C.ar    
  21 C21           10.4436     3.5958    -0.0747 C.ar    
  22 C22            9.7667     3.4171    -1.2687 C.ar    
  23 C23            8.4375     3.0424    -1.2614 C.ar    
  24 Cl24           7.6371     2.7970     2.6539 Cl      
  25 Cl25          12.1162     4.0604    -0.0882 Cl      
  26 H26           -0.9557     1.9109     0.0170 H       
  27 H27           -0.9315    -0.5470     0.0084 H       
  28 H28            5.7443     4.4748    -0.0279 H       
  29 H29           -0.5242     3.6648    -1.1691 H       
  30 H30            0.5412     5.0904    -1.1375 H       
  31 H31            1.0088     3.6505    -2.0735 H       
  32 H32            1.1921     3.6248     2.1039 H       
  33 H33            0.6451     5.0759     1.2301 H       
  34 H34           -0.4142     3.6494     1.3375 H       
  35 H35           10.3200     3.5455     2.0598 H       
  36 H36           10.2796     3.5670    -2.2072 H       
  37 H37            7.9102     2.9033    -2.1936 H       
@<TRIPOS>BOND
   1    1    2 ar
   2    1    6 ar
   3    1   26 1
   4    2    3 ar
   5    2   27 1
   6    3    4 ar
   7    4    5 ar
   8    4    7 1
   9    5    6 ar
  10    5    9 1
  11    6   14 1
  12    7    8 1
  13    8    9 2
  14    8   10 1
  15    9   13 1
  16   10   11 am
  17   10   16 2
  18   11   12 1
  19   11   15 1
  20   12   13 2
  21   12   28 1
  22   14   17 1
  23   14   18 1
  24   15   19 ar
  25   15   23 ar
  26   17   29 1
  27   17   30 1
  28   17   31 1
  29   18   32 1
  30   18   33 1
  31   18   34 1
  32   19   20 ar
  33   19   24 1
  34   20   21 ar
  35   20   35 1
  36   21   22 ar
  37   21   25 1
  38   22   23 ar
  39   22   36 1
  40   23   37 1

#	End of record

