#	Name: ASD09740073
#	Creating user name:	WinNT
#	Creation time:	15. 06. 2019 21:22

#	Modifying user name:	WinNT
#	Modification time:	15. 06. 2019 21:22

#	Program:	/corina/corina34_cracker 3.40 0067  02.08.2006

@<TRIPOS>MOLECULE
ASD09740073
  53   54    0    0    0
SMALL
NO_CHARGES


@<TRIPOS>ATOM
   1 C1            -0.0097     1.6034    -0.7553 C.ar    
   2 C2             0.0046     0.2254    -0.6655 C.ar    
   3 C3             1.2035    -0.4472    -0.5167 C.ar    
   4 C4             2.3936     0.2577    -0.4577 C.ar    
   5 C5             2.3863     1.6365    -0.5470 C.ar    
   6 C6             1.1826     2.3149    -0.6966 C.ar    
   7 S7             1.1683     4.0731    -0.8115 S.3     
   8 C8             1.0290     4.5790     0.8706 C.ar    
   9 C9             0.8090     5.3736     3.5153 C.ar    
  10 C10            0.9879     6.3231     2.5252 C.ar    
  11 C11            1.0984     5.9314     1.2018 C.ar    
  12 C12            0.8442     3.6330     1.8687 C.ar    
  13 C13            0.7348     4.0328     3.1875 C.ar    
  14 C14            0.5404     3.0037     4.2711 C.3     
  15 C15            1.2146    -1.9510    -0.4180 C.3     
  16 C16            1.4995    -2.5504    -1.7966 C.3     
  17 C17            1.5290    -4.0766    -1.6929 C.3     
  18 O18            1.8018    -4.6363    -2.9791 O.3     
  19 N19            2.5788    -4.4831    -0.7493 N.3     
  20 C20            0.1728    -4.5802    -1.1949 C.3     
  21 C21            0.2022    -6.1064    -1.0912 C.3     
  22 C22           -1.1540    -6.6100    -0.5932 C.3     
  23 P23            0.9304    -4.2914    -4.2882 P.3     
  24 O24            1.0790    -2.7262    -4.6349 O.3     
  25 O25            1.4581    -5.1688    -5.5307 O.3     
  26 O26           -0.4926    -4.6067    -4.0308 O.2     
  27 O27            1.2747     6.8637     0.2274 O.3     
  28 F28            0.4640     3.6431     5.5131 F       
  29 F29           -0.6443     2.2976     4.0365 F       
  30 F30            1.6210     2.1152     4.2697 F       
  31 Cl31           3.8962    -0.5914    -0.2709 Cl      
  32 H32           -0.9464     2.1275    -0.8756 H       
  33 H33           -0.9219    -0.3277    -0.7111 H       
  34 H34            3.3147     2.1863    -0.5003 H       
  35 H35            0.7230     5.6812     4.5470 H       
  36 H36            1.0451     7.3698     2.7849 H       
  37 H37            0.7855     2.5848     1.6153 H       
  38 H38            1.9901    -2.2634     0.2813 H       
  39 H39            0.2443    -2.2991    -0.0640 H       
  40 H40            0.7171    -2.2486    -2.4928 H       
  41 H41            2.4640    -2.1920    -2.1564 H       
  42 H42            3.4917    -4.2185    -1.0880 H       
  43 H43            2.4085    -4.0997     0.1684 H       
  44 H44           -0.0354    -4.1533    -0.2138 H       
  45 H45           -0.6063    -4.2785    -1.8951 H       
  46 H46            0.4103    -6.5333    -2.0723 H       
  47 H47            0.9812    -6.4080    -0.3910 H       
  48 H48           -1.1331    -7.6972    -0.5193 H       
  49 H49           -1.3622    -6.1831     0.3879 H       
  50 H50           -1.9330    -6.3083    -1.2933 H       
  51 H51            1.9730    -2.4639    -4.8939 H       
  52 H52            0.9775    -5.0123    -6.3551 H       
  53 H53            2.2015     7.0652     0.0390 H       
@<TRIPOS>BOND
   1    1    2 ar
   2    1    6 ar
   3    1   32 1
   4    2    3 ar
   5    2   33 1
   6    3    4 ar
   7    3   15 1
   8    4    5 ar
   9    4   31 1
  10    5    6 ar
  11    5   34 1
  12    6    7 1
  13    7    8 1
  14    8   12 ar
  15    8   11 ar
  16    9   10 ar
  17    9   13 ar
  18    9   35 1
  19   10   11 ar
  20   10   36 1
  21   11   27 1
  22   12   13 ar
  23   12   37 1
  24   13   14 1
  25   14   28 1
  26   14   29 1
  27   14   30 1
  28   15   16 1
  29   15   38 1
  30   15   39 1
  31   16   17 1
  32   16   40 1
  33   16   41 1
  34   17   18 1
  35   17   19 1
  36   17   20 1
  37   18   23 1
  38   19   42 1
  39   19   43 1
  40   20   21 1
  41   20   44 1
  42   20   45 1
  43   21   22 1
  44   21   46 1
  45   21   47 1
  46   22   48 1
  47   22   49 1
  48   22   50 1
  49   23   24 1
  50   23   25 1
  51   23   26 2
  52   24   51 1
  53   25   52 1
  54   27   53 1

#	End of record

