#	Name: ASD01148400
#	Creating user name:	WinNT
#	Creation time:	15. 06. 2019 19:02

#	Modifying user name:	WinNT
#	Modification time:	15. 06. 2019 19:02

#	Program:	/corina/corina34_cracker 3.40 0067  02.08.2006

@<TRIPOS>MOLECULE
ASD01148400
  55   58    0    0    0
SMALL
NO_CHARGES


@<TRIPOS>ATOM
   1 C1             0.3634     1.8404     0.0681 C.ar    
   2 C2             0.4618     0.4626    -0.0068 C.ar    
   3 C3            -0.6835    -0.3083    -0.0936 C.ar    
   4 C4            -1.9266     0.2990    -0.1053 C.ar    
   5 C5            -2.0243     1.6757    -0.0304 C.ar    
   6 C6            -0.8805     2.4462     0.0616 C.ar    
   7 C7            -3.3786     2.3365    -0.0432 C.3     
   8 O8            -4.3706     1.4926     0.5759 O.3     
   9 C9            -3.3985     3.5768     0.8818 C.3     
  10 C10           -3.9244     3.0072     2.1856 C.2     
  11 N11           -4.4449     1.8514     1.9415 N.2     
  12 C12           -3.8530     3.6618     3.5067 C.ar    
  13 C13           -4.3793     3.0230     4.6325 C.ar    
  14 C14           -3.2541     4.9177     3.6325 C.ar    
  15 C15           -3.1875     5.5282     4.8647 C.ar    
  16 C16           -3.7187     4.8920     5.9889 C.ar    
  17 C17           -4.3126     3.6336     5.8642 C.ar    
  18 C18           -3.6468     5.5473     7.3117 C.2     
  19 O19           -4.2053     5.0475     8.2688 O.2     
  20 N20           -2.9619     6.6990     7.4569 N.am    
  21 C21           -4.8857     2.9474     7.0774 C.3     
  22 C22           -3.7895     2.7092    -1.4691 C.3     
  23 F23           -3.8294     1.5556    -2.2595 F       
  24 F24           -5.0552     3.3049    -1.4491 F       
  25 F25           -2.8595     3.6080    -2.0026 F       
  26 Cl26          -0.5610    -2.0374    -0.1882 Cl      
  27 Cl27           1.8001     2.8087     0.1776 Cl      
  28 N28           -2.8937     7.3202     8.7108 N.pl3   
  29 C29           -2.0268     6.7688     9.7552 C.3     
  30 C30           -3.6522     8.4651     8.9652 C.ar    
  31 C31           -3.5857     9.0822    10.2079 C.ar    
  32 C32           -4.3367    10.2144    10.4559 C.ar    
  33 C33           -5.1541    10.7338     9.4688 C.ar    
  34 C34           -5.2229    10.1217     8.2307 C.ar    
  35 C35           -4.4703     8.9925     7.9741 C.ar    
  36 H36            1.4324    -0.0109     0.0020 H       
  37 H37           -2.8208    -0.3028    -0.1734 H       
  38 H38           -0.9574     3.5219     0.1201 H       
  39 H39           -2.3936     3.9782     1.0124 H       
  40 H40           -4.0733     4.3391     0.4925 H       
  41 H41           -4.8387     2.0503     4.5361 H       
  42 H42           -2.8430     5.4094     2.7633 H       
  43 H43           -2.7242     6.4989     4.9621 H       
  44 H44           -2.5162     7.0978     6.6932 H       
  45 H45           -5.8930     3.3200     7.2636 H       
  46 H46           -4.9227     1.8720     6.9030 H       
  47 H47           -4.2561     3.1537     7.9429 H       
  48 H48           -1.0370     7.2194     9.6811 H       
  49 H49           -2.4532     6.9875    10.7342 H       
  50 H50           -1.9452     5.6894     9.6273 H       
  51 H51           -2.9478     8.6769    10.9794 H       
  52 H52           -4.2857    10.6945    11.4220 H       
  53 H53           -5.7403    11.6193     9.6653 H       
  54 H54           -5.8626    10.5297     7.4621 H       
  55 H55           -4.5246     8.5149     7.0070 H       
@<TRIPOS>BOND
   1    1    2 ar
   2    1   27 1
   3    1    6 ar
   4    2    3 ar
   5    2   36 1
   6    3    4 ar
   7    3   26 1
   8    4    5 ar
   9    4   37 1
  10    5    6 ar
  11    5    7 1
  12    6   38 1
  13    7    8 1
  14    7    9 1
  15    7   22 1
  16    8   11 1
  17    9   10 1
  18    9   39 1
  19    9   40 1
  20   10   11 2
  21   10   12 1
  22   12   13 ar
  23   12   14 ar
  24   13   17 ar
  25   13   41 1
  26   14   15 ar
  27   14   42 1
  28   15   16 ar
  29   15   43 1
  30   16   17 ar
  31   16   18 1
  32   17   21 1
  33   18   19 2
  34   18   20 am
  35   20   28 1
  36   20   44 1
  37   21   45 1
  38   21   46 1
  39   21   47 1
  40   22   23 1
  41   22   24 1
  42   22   25 1
  43   28   29 1
  44   28   30 1
  45   29   48 1
  46   29   49 1
  47   29   50 1
  48   30   31 ar
  49   30   35 ar
  50   31   32 ar
  51   31   51 1
  52   32   33 ar
  53   32   52 1
  54   33   34 ar
  55   33   53 1
  56   34   35 ar
  57   34   54 1
  58   35   55 1

#	End of record

