#	Name: ASD09116209
#	Creating user name:	WinNT
#	Creation time:	15. 06. 2019 21:21

#	Modifying user name:	WinNT
#	Modification time:	15. 06. 2019 21:21

#	Program:	/corina/corina34_cracker 3.40 0067  02.08.2006

@<TRIPOS>MOLECULE
ASD09116209
  77   83    0    0    0
SMALL
NO_CHARGES


@<TRIPOS>ATOM
   1 N1            -0.0360     1.4066    -0.5573 N.2     
   2 N2            -0.0577     0.0557    -0.9397 N.pl3   
   3 C3             1.2209     1.7812    -0.5466 C.2     
   4 N4             1.9883     0.7435    -0.9002 N.2     
   5 C5             1.2314    -0.3056    -1.1408 C.2     
   6 N6             1.6832     3.0559    -0.2195 N.pl3   
   7 C7             3.0594     3.3021    -0.1386 C.ar    
   8 C8             3.5620     4.5523    -0.4751 C.ar    
   9 C9             5.7810     3.7892     0.0212 C.ar    
  10 C10            5.2778     2.5409     0.3632 C.ar    
  11 C11            3.9209     2.2980     0.2835 C.ar    
  12 C12           -1.1854    -0.7546    -1.0837 C.ar    
  13 N13           -1.1478    -1.8048    -1.8901 N.ar    
  14 N14           -2.1608    -2.5766    -2.0658 N.ar    
  15 C15           -3.3107    -2.3639    -1.4463 C.ar    
  16 C16           -3.4371    -1.2912    -0.5591 C.ar    
  17 C17           -2.3519    -0.4611    -0.3728 C.ar    
  18 C18           -4.4956    -3.2194    -1.6881 C.ar    
  19 C19           -5.7189    -2.6119    -1.9755 C.ar    
  20 C20           -5.7904    -1.1136    -2.0872 C.3     
  21 C21           -5.7795    -0.4516    -0.7120 C.3     
  22 C22           -4.7238    -1.0895     0.1870 C.3     
  23 C23           -4.4042    -4.6056    -1.6283 C.ar    
  24 C24           -5.5329    -5.3748    -1.8358 C.ar    
  25 C25           -6.7476    -4.7682    -2.0994 C.ar    
  26 C26           -6.8409    -3.3889    -2.1687 C.ar    
  27 N27            1.6741    -1.5554    -1.5303 N.pl3   
  28 C28            4.9190     4.7951    -0.3954 C.ar    
  29 N29            7.1566     4.0354     0.1020 N.3     
  30 C30            7.9133     3.0650    -0.7012 C.3     
  31 C31            9.4022     3.4156    -0.6506 C.3     
  32 N32            9.8576     3.4073     0.7466 N.3     
  33 C33            9.1008     4.3777     1.5499 C.3     
  34 C34            7.6119     4.0271     1.4993 C.3     
  35 C35            6.8168     5.0592     2.3014 C.3     
  36 C36           11.3012     3.6657     0.8314 C.3     
  37 C37           11.7593     3.6212     2.2997 C.3     
  38 C38           12.8010     2.4880     2.4022 C.3     
  39 C39           13.3457     2.3412     0.9597 C.3     
  40 C40           12.0805     2.5580     0.0929 C.3     
  41 H41            1.0515     3.7717    -0.0480 H       
  42 H42            2.8916     5.3344    -0.7995 H       
  43 H43            5.9478     1.7599     0.6911 H       
  44 H44            3.5295     1.3273     0.5498 H       
  45 H45           -2.4044     0.3891     0.2911 H       
  46 H46           -4.9348    -0.7576    -2.6611 H       
  47 H47           -6.7073    -0.8383    -2.6083 H       
  48 H48           -5.5595     0.6098    -0.8265 H       
  49 H49           -6.7604    -0.5664    -0.2508 H       
  50 H50           -5.0887    -2.0542     0.5395 H       
  51 H51           -4.5433    -0.4406     1.0440 H       
  52 H52           -3.4557    -5.0786    -1.4209 H       
  53 H53           -5.4664    -6.4519    -1.7926 H       
  54 H54           -7.6283    -5.3743    -2.2523 H       
  55 H55           -7.7927    -2.9216    -2.3737 H       
  56 H56            2.6228    -1.7184    -1.6497 H       
  57 H57            1.0361    -2.2697    -1.6843 H       
  58 H58            5.3099     5.7671    -0.6574 H       
  59 H59            7.7618     2.0632    -0.2991 H       
  60 H60            7.5666     3.0989    -1.7341 H       
  61 H61            9.9687     2.6803    -1.2220 H       
  62 H62            9.5572     4.4064    -1.0777 H       
  63 H63            9.4475     4.3438     2.5827 H       
  64 H64            9.2524     5.3795     1.1478 H       
  65 H65            7.4569     3.0363     1.9264 H       
  66 H66            6.9714     6.0496     1.8732 H       
  67 H67            5.7565     4.8092     2.2651 H       
  68 H68            7.1561     5.0542     3.3372 H       
  69 H69           11.5322     4.6385     0.3975 H       
  70 H70           12.2134     4.5721     2.5781 H       
  71 H71           10.9104     3.4079     2.9494 H       
  72 H72           13.6025     2.7673     3.0861 H       
  73 H73           12.3266     1.5619     2.7269 H       
  74 H74           14.0936     3.1057     0.7495 H       
  75 H75           13.7562     1.3439     0.8014 H       
  76 H76           11.4898     1.6432     0.0447 H       
  77 H77           12.3562     2.8884    -0.9086 H       
@<TRIPOS>BOND
   1    1    2 1
   2    1    3 2
   3    2   12 1
   4    2    5 1
   5    3    4 1
   6    3    6 1
   7    4    5 2
   8    5   27 1
   9    6    7 1
  10    6   41 1
  11    7    8 ar
  12    7   11 ar
  13    8   28 ar
  14    8   42 1
  15    9   10 ar
  16    9   29 1
  17    9   28 ar
  18   10   11 ar
  19   10   43 1
  20   11   44 1
  21   12   13 ar
  22   12   17 ar
  23   13   14 ar
  24   14   15 ar
  25   15   16 ar
  26   15   18 1
  27   16   17 ar
  28   16   22 1
  29   17   45 1
  30   18   19 ar
  31   18   23 ar
  32   19   20 1
  33   19   26 ar
  34   20   21 1
  35   20   46 1
  36   20   47 1
  37   21   22 1
  38   21   48 1
  39   21   49 1
  40   22   50 1
  41   22   51 1
  42   23   24 ar
  43   23   52 1
  44   24   25 ar
  45   24   53 1
  46   25   26 ar
  47   25   54 1
  48   26   55 1
  49   27   56 1
  50   27   57 1
  51   28   58 1
  52   29   30 1
  53   29   34 1
  54   30   31 1
  55   30   59 1
  56   30   60 1
  57   31   32 1
  58   31   61 1
  59   31   62 1
  60   32   33 1
  61   32   36 1
  62   33   34 1
  63   33   63 1
  64   33   64 1
  65   34   35 1
  66   34   65 1
  67   35   66 1
  68   35   67 1
  69   35   68 1
  70   36   37 1
  71   36   40 1
  72   36   69 1
  73   37   38 1
  74   37   70 1
  75   37   71 1
  76   38   39 1
  77   38   72 1
  78   38   73 1
  79   39   40 1
  80   39   74 1
  81   39   75 1
  82   40   76 1
  83   40   77 1

#	End of record

