#	Name: ASD01916371
#	Creating user name:	WinNT
#	Creation time:	15. 06. 2019 20:07

#	Modifying user name:	WinNT
#	Modification time:	15. 06. 2019 20:07

#	Program:	/corina/corina34_cracker 3.40 0067  02.08.2006

@<TRIPOS>MOLECULE
ASD01916371
  38   40    0    0    0
SMALL
NO_CHARGES


@<TRIPOS>ATOM
   1 C1            -0.0187     1.5289     0.0104 C.3     
   2 C2             0.0021    -0.0041     0.0020 C.3     
   3 C3             0.4948    -0.4748    -1.3656 C.3     
   4 C4             1.7793     0.2192    -1.7295 C.ar    
   5 C5             2.2026     1.3721    -1.1047 C.ar    
   6 C6             1.4241     2.0325    -0.0006 C.3     
   7 N7             2.5305    -0.3038    -2.6923 N.ar    
   8 C8             3.6676     0.2665    -3.0555 C.ar    
   9 N9             4.1000     1.3775    -2.4768 N.ar    
  10 C10            3.4014     1.9476    -1.5112 C.ar    
  11 N11            4.4221    -0.3097    -4.0626 N.pl3   
  12 C12            5.6839     0.3084    -4.4775 C.3     
  13 C13            6.5952    -0.7558    -5.0923 C.3     
  14 C14            5.9063    -1.3756    -6.3098 C.3     
  15 C15            5.6239    -0.2857    -7.3457 C.3     
  16 C16            4.7126     0.7785    -6.7309 C.3     
  17 C17            5.4015     1.3983    -5.5135 C.3     
  18 Cl18           6.9801    -2.6297    -7.0343 Cl      
  19 H19           -0.5406     1.8931    -0.8745 H       
  20 H20           -0.5236     1.8835     0.9090 H       
  21 H21            0.6763    -0.3654     0.7785 H       
  22 H22           -1.0036    -0.3849     0.1800 H       
  23 H23            0.6625    -1.5515    -1.3372 H       
  24 H24           -0.2615    -0.2507    -2.1179 H       
  25 H25            1.4281     3.1119    -0.1526 H       
  26 H26            1.8926     1.8047     0.9568 H       
  27 H27            3.7577     2.8530    -1.0426 H       
  28 H28            4.1155    -1.1227    -4.4937 H       
  29 H29            6.1747     0.7499    -3.6102 H       
  30 H30            7.5340    -0.2960    -5.4010 H       
  31 H31            6.7964    -1.5323    -4.3543 H       
  32 H32            4.9675    -1.8354    -6.0011 H       
  33 H33            6.5627     0.1742    -7.6545 H       
  34 H34            5.1331    -0.7272    -8.2131 H       
  35 H35            4.5115     1.5550    -7.4690 H       
  36 H36            3.7738     0.3187    -6.4222 H       
  37 H37            4.7523     2.1565    -5.0755 H       
  38 H38            6.3403     1.8582    -5.8222 H       
@<TRIPOS>BOND
   1    1    2 1
   2    1    6 1
   3    1   19 1
   4    1   20 1
   5    2    3 1
   6    2   21 1
   7    2   22 1
   8    3    4 1
   9    3   23 1
  10    3   24 1
  11    4    5 ar
  12    4    7 ar
  13    5    6 1
  14    5   10 ar
  15    6   25 1
  16    6   26 1
  17    7    8 ar
  18    8    9 ar
  19    8   11 1
  20    9   10 ar
  21   10   27 1
  22   11   12 1
  23   11   28 1
  24   12   13 1
  25   12   17 1
  26   12   29 1
  27   13   14 1
  28   13   30 1
  29   13   31 1
  30   14   15 1
  31   14   18 1
  32   14   32 1
  33   15   16 1
  34   15   33 1
  35   15   34 1
  36   16   17 1
  37   16   35 1
  38   16   36 1
  39   17   37 1
  40   17   38 1

#	End of record

