#	Name: ASD01190063
#	Creating user name:	WinNT
#	Creation time:	15. 06. 2019 19:07

#	Modifying user name:	WinNT
#	Modification time:	15. 06. 2019 19:07

#	Program:	/corina/corina34_cracker 3.40 0067  02.08.2006

@<TRIPOS>MOLECULE
ASD01190063
  35   37    0    0    0
SMALL
NO_CHARGES


@<TRIPOS>ATOM
   1 N1            -0.0178     1.4648     0.0101 N.3     
   2 C2             0.0021    -0.0041     0.0020 C.3     
   3 C3             0.8136    -0.5019     1.1702 C.ar    
   4 C4             0.1962    -0.7466     2.3837 C.ar    
   5 C5             0.9344    -1.2026     3.4569 C.ar    
   6 C6             2.3045    -1.4164     3.3163 C.ar    
   7 C7             2.9212    -1.1681     2.0914 C.ar    
   8 C8             2.1720    -0.7177     1.0234 C.ar    
   9 S9             4.0328    -3.1516     8.0811 S.3     
  10 C10            3.6239    -2.5921     6.4531 C.2     
  11 N11            4.7744    -2.5940     5.7363 N.pl3   
  12 C12            5.9314    -3.0082     6.4021 C.ar    
  13 C13            5.7526    -3.3695     7.7343 C.ar    
  14 C14            7.2272    -3.0923     5.8711 C.ar    
  15 C15            8.2775    -3.5199     6.6498 C.ar    
  16 C16            8.0800    -3.8764     7.9729 C.ar    
  17 C17            6.8124    -3.7996     8.5160 C.ar    
  18 N18            2.6305    -2.1833     5.6987 N.2     
  19 C19            3.1034    -1.9060     4.4664 C.2     
  20 C20            4.4347    -2.1525     4.4625 C.2     
  21 H21            0.9191     1.8392     0.0032 H       
  22 H22           -0.5563     1.8234    -0.7642 H       
  23 H23           -1.0174    -0.3817     0.0806 H       
  24 H24            0.4494    -0.3563    -0.9275 H       
  25 H25           -0.8654    -0.5802     2.4915 H       
  26 H26            0.4515    -1.3930     4.4039 H       
  27 H27            3.9825    -1.3321     1.9769 H       
  28 H28            2.6480    -0.5295     0.0724 H       
  29 H29            7.4018    -2.8190     4.8409 H       
  30 H30            9.2681    -3.5786     6.2237 H       
  31 H31            8.9111    -4.2109     8.5761 H       
  32 H32            6.6476    -4.0754     9.5471 H       
  33 H33            5.1071    -2.0290     3.6264 H       
  34 H34           14.2681     6.8392    14.5471 H       
  35 Cl35          14.2681     8.2092    14.5471 Cl      
@<TRIPOS>BOND
   1    1    2 1
   2    1   21 1
   3    1   22 1
   4    2    3 1
   5    2   23 1
   6    2   24 1
   7    3    4 ar
   8    3    8 ar
   9    4    5 ar
  10    4   25 1
  11    5    6 ar
  12    5   26 1
  13    6    7 ar
  14    6   19 1
  15    7    8 ar
  16    7   27 1
  17    8   28 1
  18    9   10 1
  19    9   13 1
  20   10   11 1
  21   10   18 2
  22   11   12 1
  23   11   20 1
  24   12   13 ar
  25   12   14 ar
  26   13   17 ar
  27   14   15 ar
  28   14   29 1
  29   15   16 ar
  30   15   30 1
  31   16   17 ar
  32   16   31 1
  33   17   32 1
  34   18   19 1
  35   19   20 2
  36   20   33 1
  37   34   35 1

#	End of record

