#	Name: ASD01411080
#	Creating user name:	WinNT
#	Creation time:	15. 06. 2019 19:19

#	Modifying user name:	WinNT
#	Modification time:	15. 06. 2019 19:19

#	Program:	/corina/corina34_cracker 3.40 0067  02.08.2006

@<TRIPOS>MOLECULE
ASD01411080
  39   41    0    0    0
SMALL
NO_CHARGES


@<TRIPOS>ATOM
   1 C1             0.0691     1.5757     0.5265 C.2     
   2 C2             0.0804     0.1462     0.7369 C.ar    
   3 C3             1.3380     1.9477     0.2381 C.2     
   4 C4            -1.0796     2.5501     0.5985 C.3     
   5 C5             1.4262    -0.2645     0.5510 C.ar    
   6 C6            -0.9213    -0.7772     1.0574 C.ar    
   7 C7             1.7229     3.3804    -0.0474 C.3     
   8 N8             2.1557     0.8519     0.2517 N.pl3   
   9 C9            -0.4918     3.9661     0.6832 C.3     
  10 C10            1.7863    -1.6045     0.6832 C.ar    
  11 C11           -0.5348    -2.1002     1.1823 C.ar    
  12 Cl12          -2.5704    -0.2861     1.2879 Cl      
  13 O13            0.5248     4.1212    -0.3110 O.3     
  14 C14            2.4403     3.9739     1.1667 C.3     
  15 C15            2.6435     3.4342    -1.2682 C.3     
  16 C16            0.7786    -2.5002     1.0005 C.ar    
  17 Cl17           3.4263    -2.1281     0.4594 Cl      
  18 C18            1.9164     2.8884    -2.4701 C.2     
  19 H19            3.1094     0.8649     0.0753 H       
  20 O20            0.7478     2.5929    -2.3865 O.2     
  21 O21            2.5670     2.7304    -3.6335 O.3     
  22 H22            2.0587     2.3770    -4.3763 H       
  23 C23            2.7985     5.4343     0.8838 C.3     
  24 C24            3.4011     6.0643     2.1410 C.3     
  25 F25            4.5554     5.3635     2.5065 F       
  26 F26            3.7286     7.3996     1.8823 F       
  27 F27            2.4703     6.0061     3.1838 F       
  28 H28           -1.6966     2.4597    -0.2955 H       
  29 H29           -1.6809     2.3468     1.4846 H       
  30 H30           -1.2815     4.6981     0.5141 H       
  31 H31           -0.0580     4.1210     1.6711 H       
  32 H32           -1.2794    -2.8425     1.4292 H       
  33 H33            1.7856     3.9224     2.0366 H       
  34 H34            3.3509     3.4080     1.3632 H       
  35 H35            2.9351     4.4671    -1.4581 H       
  36 H36            3.5337     2.8343    -1.0788 H       
  37 H37            1.0254    -3.5459     1.1099 H       
  38 H38            3.5237     5.4796     0.0713 H       
  39 H39            1.8992     5.9803     0.5990 H       
@<TRIPOS>BOND
   1    1    2 1
   2    1    3 2
   3    1    4 1
   4    2    5 ar
   5    2    6 ar
   6    3    7 1
   7    3    8 1
   8    4    9 1
   9    4   28 1
  10    4   29 1
  11    5   10 ar
  12    5    8 1
  13    6   11 ar
  14    6   12 1
  15    7   14 1
  16    7   15 1
  17    7   13 1
  18    8   19 1
  19    9   13 1
  20    9   30 1
  21    9   31 1
  22   10   16 ar
  23   10   17 1
  24   11   16 ar
  25   11   32 1
  26   14   23 1
  27   14   33 1
  28   14   34 1
  29   15   18 1
  30   15   35 1
  31   15   36 1
  32   16   37 1
  33   18   20 2
  34   18   21 1
  35   21   22 1
  36   23   24 1
  37   23   38 1
  38   23   39 1
  39   24   25 1
  40   24   26 1
  41   24   27 1

#	End of record

