#	Name: ASD03330371
#	Creating user name:	WinNT
#	Creation time:	15. 06. 2019 20:37

#	Modifying user name:	WinNT
#	Modification time:	15. 06. 2019 20:37

#	Program:	/corina/corina34_cracker 3.40 0067  02.08.2006

@<TRIPOS>MOLECULE
ASD03330371
  54   56    0    0    0
SMALL
NO_CHARGES


@<TRIPOS>ATOM
   1 C1             0.0194     1.4637     0.1764 C.3     
   2 N2            -0.0308     0.0166    -0.0750 N.3     
   3 C3             0.2185    -0.2866    -1.4959 C.3     
   4 C4             1.4666     0.4460    -1.9157 C.2     
   5 N5             2.0240     1.4630    -1.1969 N.pl3   
   6 C6             1.4662     1.9616     0.0632 C.3     
   7 C7             2.2400     0.2611    -3.0141 C.2     
   8 N8             3.2544     1.1543    -2.9575 N.2     
   9 C9             3.1302     1.8782    -1.8675 C.2     
  10 C10            4.0418     2.9630    -1.4423 C.ar    
  11 C11            4.9531     3.5072    -2.3480 C.ar    
  12 C12            2.0158    -0.7336    -4.0780 C.2     
  13 O13            1.0621    -1.4859    -4.0160 O.2     
  14 C14            2.6446    -1.7987    -6.1773 C.3     
  15 N15            2.8675    -0.8098    -5.1197 N.am    
  16 C16           -1.3117    -0.5504     0.3675 C.3     
  17 C17            5.8007     4.5185    -1.9459 C.ar    
  18 C18            5.7484     4.9937    -0.6464 C.ar    
  19 C19            4.8461     4.4574     0.2568 C.ar    
  20 C20            3.9897     3.4497    -0.1357 C.ar    
  21 C21            3.7464    -1.6750    -7.2317 C.3     
  22 C22           -1.3695    -2.0328    -0.0065 C.3     
  23 C23            2.2116    -2.3836    -9.0714 C.3     
  24 C24            3.5136    -2.7078    -8.3362 C.3     
  25 O25           -0.3467    -2.7416     0.6960 O.3     
  26 C26            4.6807    -2.6691    -9.3248 C.3     
  27 Cl27           6.8186     6.2662    -0.1472 Cl      
  28 H28           -0.5999     1.9804    -0.5568 H       
  29 H29           -0.3577     1.6707     1.1779 H       
  30 H30            0.3602    -1.3597    -1.6244 H       
  31 H31           -0.6259     0.0490    -2.0980 H       
  32 H32            1.4814     3.0515     0.0665 H       
  33 H33            2.0522     1.5824     0.9005 H       
  34 H34            4.9950     3.1371    -3.3617 H       
  35 H35            2.6635    -2.8004    -5.7480 H       
  36 H36            1.6750    -1.6210    -6.6424 H       
  37 H37            3.6281    -0.2099    -5.1692 H       
  38 H38           -1.4017    -0.4447     1.4486 H       
  39 H39           -2.1308    -0.0207    -0.1188 H       
  40 H40            6.5068     4.9402    -2.6460 H       
  41 H41            4.8097     4.8319     1.2691 H       
  42 H42            3.2863     3.0322     0.5694 H       
  43 H43            3.7275    -0.6733    -7.6610 H       
  44 H44            4.7160    -1.8527    -6.7666 H       
  45 H45           -2.3443    -2.4382     0.2647 H       
  46 H46           -1.2161    -2.1430    -1.0800 H       
  47 H47            2.0457    -3.1193    -9.8583 H       
  48 H48            1.3801    -2.4111    -8.3671 H       
  49 H49            2.2813    -1.3892    -9.5125 H       
  50 H50            3.4439    -3.7021    -7.8951 H       
  51 H51           -0.3241    -3.6896     0.5068 H       
  52 H52            4.7504    -1.6748    -9.7659 H       
  53 H53            5.6083    -2.9001    -8.8011 H       
  54 H54            4.5148    -3.4049   -10.1117 H       
@<TRIPOS>BOND
   1    1    2 1
   2    1    6 1
   3    1   28 1
   4    1   29 1
   5    2    3 1
   6    2   16 1
   7    3    4 1
   8    3   30 1
   9    3   31 1
  10    4    5 1
  11    4    7 2
  12    5    6 1
  13    5    9 1
  14    6   32 1
  15    6   33 1
  16    7    8 1
  17    7   12 1
  18    8    9 2
  19    9   10 1
  20   10   11 ar
  21   10   20 ar
  22   11   17 ar
  23   11   34 1
  24   12   13 2
  25   12   15 am
  26   14   15 1
  27   14   21 1
  28   14   35 1
  29   14   36 1
  30   15   37 1
  31   16   22 1
  32   16   38 1
  33   16   39 1
  34   17   18 ar
  35   17   40 1
  36   18   19 ar
  37   18   27 1
  38   19   20 ar
  39   19   41 1
  40   20   42 1
  41   21   24 1
  42   21   43 1
  43   21   44 1
  44   22   25 1
  45   22   45 1
  46   22   46 1
  47   23   24 1
  48   23   47 1
  49   23   48 1
  50   23   49 1
  51   24   26 1
  52   24   50 1
  53   25   51 1
  54   26   52 1
  55   26   53 1
  56   26   54 1

#	End of record

