#	Name: ASD08150216
#	Creating user name:	WinNT
#	Creation time:	15. 06. 2019 21:15

#	Modifying user name:	WinNT
#	Modification time:	15. 06. 2019 21:15

#	Program:	/corina/corina34_cracker 3.40 0067  02.08.2006

@<TRIPOS>MOLECULE
ASD08150216
  46   50    0    0    0
SMALL
NO_CHARGES


@<TRIPOS>ATOM
   1 N1            -0.0155     1.2955     0.0092 N.2     
   2 C2             0.0021    -0.0041     0.0020 C.2     
   3 N3             1.2967    -0.4527    -0.0127 N.am    
   4 C4             2.1136     0.6573    -0.0146 C.ar    
   5 N5             3.4263     0.8547    -0.0260 N.ar    
   6 C6             3.9219     2.0749    -0.0242 C.ar    
   7 N7             3.1559     3.1500    -0.0112 N.ar    
   8 C8             1.8305     3.0505     0.0009 C.ar    
   9 C9             1.2552     1.7685    -0.0004 C.ar    
  10 C10            1.6968    -1.7397    -0.0231 C.2     
  11 O11            2.8812    -2.0072    -0.0354 O.2     
  12 O12            0.7837    -2.7281    -0.0197 O.3     
  13 N13            1.0355     4.1831     0.0150 N.pl3   
  14 C14            1.2867    -4.0901    -0.0314 C.3     
  15 N15           -1.0766    -4.5689    -0.0120 N.2     
  16 C16            0.1279    -5.0536    -0.0256 C.2     
  17 N17            0.3968    -6.3873    -0.0354 N.am    
  18 C18           -0.6091    -7.2927    -0.0313 C.2     
  19 C19           -1.9840    -6.7764    -0.0154 C.ar    
  20 C20           -3.0915    -7.6262    -0.0104 C.ar    
  21 C21           -4.3621    -7.0854     0.0042 C.ar    
  22 C22           -4.5427    -5.7096     0.0134 C.ar    
  23 C23           -3.4625    -4.8550     0.0087 C.ar    
  24 C24           -2.1674    -5.3754    -0.0056 C.ar    
  25 O25           -0.3830    -8.4889    -0.0408 O.2     
  26 F26           -2.9218    -8.9665    -0.0203 F       
  27 C27            1.7268    -6.8272    -0.0504 C.ar    
  28 C28            2.3766    -7.0394    -1.2606 C.ar    
  29 C29            3.6886    -7.4735    -1.2714 C.ar    
  30 C30            4.3541    -7.6969    -0.0798 C.ar    
  31 C31            3.7099    -7.4866     1.1253 C.ar    
  32 C32            2.4003    -7.0467     1.1433 C.ar    
  33 Cl33           1.5412    -6.7601    -2.7565 Cl      
  34 H34           -0.8735    -0.6363     0.0073 H       
  35 H35            4.9945     2.2006    -0.0334 H       
  36 H36            1.4445     5.0627     0.0162 H       
  37 H37            0.0694     4.0975     0.0238 H       
  38 H38            1.8863    -4.2484    -0.9278 H       
  39 H39            1.9028    -4.2575     0.8521 H       
  40 H40           -5.2222    -7.7386     0.0081 H       
  41 H41           -5.5434    -5.3036     0.0241 H       
  42 H42           -3.6170    -3.7862     0.0164 H       
  43 H43            4.1945    -7.6387    -2.2111 H       
  44 H44            5.3791    -8.0368    -0.0907 H       
  45 H45            4.2326    -7.6620     2.0540 H       
  46 H46            1.8997    -6.8781     2.0852 H       
@<TRIPOS>BOND
   1    1    2 2
   2    1    9 1
   3    2    3 1
   4    2   34 1
   5    3    4 1
   6    3   10 am
   7    4    5 ar
   8    4    9 ar
   9    5    6 ar
  10    6    7 ar
  11    6   35 1
  12    7    8 ar
  13    8    9 ar
  14    8   13 1
  15   10   11 2
  16   10   12 1
  17   12   14 1
  18   13   36 1
  19   13   37 1
  20   14   16 1
  21   14   38 1
  22   14   39 1
  23   15   16 2
  24   15   24 1
  25   16   17 1
  26   17   18 am
  27   17   27 1
  28   18   19 1
  29   18   25 2
  30   19   20 ar
  31   19   24 ar
  32   20   21 ar
  33   20   26 1
  34   21   22 ar
  35   21   40 1
  36   22   23 ar
  37   22   41 1
  38   23   24 ar
  39   23   42 1
  40   27   28 ar
  41   27   32 ar
  42   28   29 ar
  43   28   33 1
  44   29   30 ar
  45   29   43 1
  46   30   31 ar
  47   30   44 1
  48   31   32 ar
  49   31   45 1
  50   32   46 1

#	End of record

