#	Name: ASD01140547
#	Creating user name:	WinNT
#	Creation time:	15. 06. 2019 19:01

#	Modifying user name:	WinNT
#	Modification time:	15. 06. 2019 19:01

#	Program:	/corina/corina34_cracker 3.40 0067  02.08.2006

@<TRIPOS>MOLECULE
ASD01140547
  28   30    0    0    0
SMALL
NO_CHARGES


@<TRIPOS>ATOM
   1 C1            -0.0178     1.4608     0.0101 C.3     
   2 N2             0.0021    -0.0041     0.0020 N.pl3   
   3 N3             0.0081    -0.8014    -1.1485 N.2     
   4 C4             0.0273    -2.0687    -0.7916 C.ar    
   5 C5             0.0415    -3.3454    -1.5086 C.ar    
   6 C6             0.0606    -4.5154    -0.7761 C.ar    
   7 C7             0.0664    -4.5001     0.6162 C.ar    
   8 C8             0.0540    -3.3490     1.3331 C.ar    
   9 C9             0.0342    -2.0996     0.6793 C.ar    
  10 C10            0.0230    -0.7796     1.0955 C.2     
  11 Br11           0.0321    -0.1771     2.8879 Br      
  12 C12            0.0350    -3.3806    -2.9888 C.ar    
  13 C13           -1.0566    -3.9167    -3.6715 C.ar    
  14 C14           -1.0576    -3.9466    -5.0510 C.ar    
  15 C15            0.0225    -3.4463    -5.7582 C.ar    
  16 Cl16           0.0135    -3.4876    -7.4937 Cl      
  17 C17            1.1095    -2.9127    -5.0867 C.ar    
  18 C18            1.1193    -2.8721    -3.7068 C.ar    
  19 Cl19           2.4798    -2.1969    -2.8659 Cl      
  20 H20            1.0048     1.8381     0.0023 H       
  21 H21           -0.5450     1.8219    -0.8730 H       
  22 H22           -0.5280     1.8123     0.9069 H       
  23 H23            0.0708    -5.4630    -1.2942 H       
  24 H24            0.0812    -5.4413     1.1457 H       
  25 H25            0.0589    -3.3893     2.4123 H       
  26 H26           -1.8996    -4.3080    -3.1214 H       
  27 H27           -1.9026    -4.3616    -5.5803 H       
  28 H28            1.9494    -2.5242    -5.6435 H       
@<TRIPOS>BOND
   1    1    2 1
   2    1   20 1
   3    1   21 1
   4    1   22 1
   5    2   10 1
   6    2    3 1
   7    3    4 2
   8    4    9 ar
   9    4    5 ar
  10    5    6 ar
  11    5   12 1
  12    6    7 ar
  13    6   23 1
  14    7    8 ar
  15    7   24 1
  16    8    9 ar
  17    8   25 1
  18    9   10 2
  19   10   11 1
  20   12   18 ar
  21   12   13 ar
  22   13   14 ar
  23   13   26 1
  24   14   15 ar
  25   14   27 1
  26   15   16 1
  27   15   17 ar
  28   17   18 ar
  29   17   28 1
  30   18   19 1

#	End of record

