#	Name: ASD04590283
#	Creating user name:	WinNT
#	Creation time:	15. 06. 2019 20:50

#	Modifying user name:	WinNT
#	Modification time:	15. 06. 2019 20:50

#	Program:	/corina/corina34_cracker 3.40 0067  02.08.2006

@<TRIPOS>MOLECULE
ASD04590283
  52   56    0    0    0
SMALL
NO_CHARGES


@<TRIPOS>ATOM
   1 C1            -0.0167     1.3832     0.0096 C.ar    
   2 C2             0.0021    -0.0041     0.0020 C.ar    
   3 C3             1.1969    -0.6870    -0.0126 C.ar    
   4 C4             2.4020     0.0223    -0.0203 C.ar    
   5 C5             2.3769     1.4283    -0.0129 C.ar    
   6 C6             1.1624     2.0986     0.0022 C.ar    
   7 N7             3.7040    -0.3552    -0.0343 N.2     
   8 C8             4.4709     0.7083    -0.0361 C.2     
   9 N9             3.6969     1.8375    -0.0232 N.pl3   
  10 C10            5.9482     0.6906    -0.0500 C.2     
  11 C11            6.7657    -0.4631    -0.0639 C.2     
  12 C12            8.0579    -0.0540    -0.0737 C.2     
  13 N13            8.0646     1.3050    -0.0664 N.pl3   
  14 N14            6.7361     1.7480    -0.0573 N.2     
  15 N15            6.3188    -1.7944    -0.0671 N.am    
  16 C16            7.2108    -2.8046    -0.0809 C.2     
  17 C17            6.7414    -4.2032    -0.0842 C.ar    
  18 O18            8.4027    -2.5633    -0.0907 O.2     
  19 C19            6.0605    -6.1719    -1.2888 C.ar    
  20 C20            5.8580    -6.8319    -0.0904 C.ar    
  21 C21            6.0884    -6.1869     1.1112 C.ar    
  22 C22            6.5288    -4.8768     1.1235 C.ar    
  23 F23            6.7537    -4.2487     2.2983 F       
  24 C24            6.5007    -4.8617    -1.2949 C.ar    
  25 F25            6.6975    -4.2186    -2.4667 F       
  26 C26            1.2064    -2.1939    -0.0198 C.3     
  27 N27            1.4630    -2.6884     1.3395 N.3     
  28 C28            1.2463    -4.1402     1.4216 C.3     
  29 C29            0.6306    -1.9811     2.3234 C.3     
  30 C30            0.9720    -2.4841     3.7284 C.3     
  31 O31            0.7855    -3.9011     3.7804 O.3     
  32 C32            1.5816    -4.6216     2.8357 C.3     
  33 H33           -0.9614     1.9066     0.0169 H       
  34 H34           -0.9283    -0.5525     0.0079 H       
  35 H35            1.1403     3.1784     0.0075 H       
  36 H36            4.0156     2.7537    -0.0215 H       
  37 H37            8.9276    -0.6942    -0.0850 H       
  38 H38            8.8529     1.8702    -0.0703 H       
  39 H39            5.3681    -1.9869    -0.0593 H       
  40 H40            5.8782    -6.6830    -2.2225 H       
  41 H41            5.5136    -7.8555    -0.0928 H       
  42 H42            5.9274    -6.7096     2.0425 H       
  43 H43            0.2397    -2.5617    -0.3638 H       
  44 H44            1.9896    -2.5491    -0.6895 H       
  45 H45            0.2036    -4.3658     1.1979 H       
  46 H46            1.8910    -4.6457     0.7026 H       
  47 H47            0.8259    -0.9104     2.2627 H       
  48 H48           -0.4219    -2.1721     2.1141 H       
  49 H49            2.0103    -2.2450     3.9583 H       
  50 H50            0.3176    -2.0040     4.4560 H       
  51 H51            1.3680    -5.6874     2.9175 H       
  52 H52            2.6376    -4.4447     3.0396 H       
@<TRIPOS>BOND
   1    1    2 ar
   2    1    6 ar
   3    1   33 1
   4    2    3 ar
   5    2   34 1
   6    3    4 ar
   7    3   26 1
   8    4    5 ar
   9    4    7 1
  10    5    6 ar
  11    5    9 1
  12    6   35 1
  13    7    8 2
  14    8    9 1
  15    8   10 1
  16    9   36 1
  17   10   11 1
  18   10   14 2
  19   11   12 2
  20   11   15 1
  21   12   13 1
  22   12   37 1
  23   13   14 1
  24   13   38 1
  25   15   16 am
  26   15   39 1
  27   16   17 1
  28   16   18 2
  29   17   22 ar
  30   17   24 ar
  31   19   20 ar
  32   19   24 ar
  33   19   40 1
  34   20   21 ar
  35   20   41 1
  36   21   22 ar
  37   21   42 1
  38   22   23 1
  39   24   25 1
  40   26   27 1
  41   26   43 1
  42   26   44 1
  43   27   28 1
  44   27   29 1
  45   28   32 1
  46   28   45 1
  47   28   46 1
  48   29   30 1
  49   29   47 1
  50   29   48 1
  51   30   31 1
  52   30   49 1
  53   30   50 1
  54   31   32 1
  55   32   51 1
  56   32   52 1

#	End of record

