#	Name: ASD01918217
#	Creating user name:	WinNT
#	Creation time:	15. 06. 2019 20:11

#	Modifying user name:	WinNT
#	Modification time:	15. 06. 2019 20:11

#	Program:	/corina/corina34_cracker 3.40 0067  02.08.2006

@<TRIPOS>MOLECULE
ASD01918217
  40   43    0    0    0
SMALL
NO_CHARGES


@<TRIPOS>ATOM
   1 C1             0.0534     1.3208    -0.0365 C.ar    
   2 C2             0.1966    -0.0695    -0.2733 C.ar    
   3 C3             1.4768    -0.6591    -0.1342 C.ar    
   4 N4             2.5250     0.0940     0.2158 N.ar    
   5 C5             2.4069     1.3812     0.4385 C.ar    
   6 C6             1.1872     2.0373     0.3230 C.ar    
   7 C7            -1.2616     1.9885    -0.1739 C.ar    
   8 C8            -2.2544     1.7824     0.7832 C.ar    
   9 C9            -3.4793     2.4089     0.6493 C.ar    
  10 C10           -3.7199     3.2395    -0.4331 C.ar    
  11 C11           -2.7374     3.4464    -1.3846 C.ar    
  12 C12           -1.5093     2.8304    -1.2583 C.ar    
  13 C13           -0.8985    -0.8631    -0.6393 C.ar    
  14 C14           -0.7221    -2.1961    -0.8583 C.ar    
  15 C15            0.5368    -2.7816    -0.7227 C.ar    
  16 C16            1.6228    -2.0369    -0.3682 C.ar    
  17 S17            1.0801     3.7688     0.6314 S.o2    
  18 C18            0.0899     3.9815     2.0732 C.ar    
  19 O19            2.3902     4.1965     0.9777 O.2     
  20 O20            0.3413     4.3238    -0.4482 O.2     
  21 C21           -1.2542     4.2788     1.9501 C.ar    
  22 C22            0.6567     3.8452     3.3264 C.ar    
  23 C23           -0.1207     4.0117     4.4602 C.ar    
  24 C24           -1.4658     4.3147     4.3382 C.ar    
  25 C25           -2.0334     4.4457     3.0826 C.ar    
  26 F26           -3.3472     4.7368     2.9619 F       
  27 F27            0.6823    -4.1061    -0.9457 F       
  28 F28            0.4335     3.8779     5.6851 F       
  29 F29           -4.4431     2.2106     1.5750 F       
  30 H30            3.2827     1.9476     0.7189 H       
  31 H31           -2.0669     1.1347     1.6268 H       
  32 H32           -4.6783     3.7270    -0.5345 H       
  33 H33           -2.9308     4.0947    -2.2265 H       
  34 H34           -0.7422     2.9965    -2.0002 H       
  35 H35           -1.8777    -0.4204    -0.7469 H       
  36 H36           -1.5670    -2.8070    -1.1400 H       
  37 H37            2.5910    -2.5044    -0.2667 H       
  38 H38           -1.6968     4.3814     0.9704 H       
  39 H39            1.7061     3.6084     3.4214 H       
  40 H40           -2.0728     4.4443     5.2219 H       
@<TRIPOS>BOND
   1    1    2 ar
   2    1    6 ar
   3    1    7 1
   4    2    3 ar
   5    2   13 ar
   6    3    4 ar
   7    3   16 ar
   8    4    5 ar
   9    5    6 ar
  10    5   30 1
  11    6   17 1
  12    7    8 ar
  13    7   12 ar
  14    8    9 ar
  15    8   31 1
  16    9   10 ar
  17    9   29 1
  18   10   11 ar
  19   10   32 1
  20   11   12 ar
  21   11   33 1
  22   12   34 1
  23   13   14 ar
  24   13   35 1
  25   14   15 ar
  26   14   36 1
  27   15   16 ar
  28   15   27 1
  29   16   37 1
  30   17   18 1
  31   17   19 2
  32   17   20 2
  33   18   22 ar
  34   18   21 ar
  35   21   25 ar
  36   21   38 1
  37   22   23 ar
  38   22   39 1
  39   23   24 ar
  40   23   28 1
  41   24   25 ar
  42   24   40 1
  43   25   26 1

#	End of record

