#	Name: ASD01122006
#	Creating user name:	WinNT
#	Creation time:	15. 06. 2019 18:59

#	Modifying user name:	WinNT
#	Modification time:	15. 06. 2019 18:59

#	Program:	/corina/corina34_cracker 3.40 0067  02.08.2006

@<TRIPOS>MOLECULE
ASD01122006
  34   35    0    0    0
SMALL
NO_CHARGES


@<TRIPOS>ATOM
   1 C1            -0.0248     1.9808     0.0129 C.2     
   2 Se2            0.0021    -0.0041     0.0020 Du      
   3 C3            -1.9824    -0.0647     0.0206 C.2     
   4 C4            -2.2644     1.2648     0.0305 C.2     
   5 N5            -1.3185     2.2093     0.0323 N.2     
   6 N6             1.0170     2.8669     0.0077 N.pl3   
   7 C7            -3.6806     1.6851     0.0457 C.2     
   8 C8            -4.1324     2.9678     0.0568 C.2     
   9 C9            -5.5398     2.9022     0.0694 C.2     
  10 C10           -5.8743     1.5968     0.0653 C.2     
  11 O11           -4.7489     0.8645     0.0452 O.3     
  12 C12           -2.9130    -1.2500     0.0227 C.3     
  13 C13           -3.1423    -1.7209    -1.4148 C.3     
  14 C14           -1.8264    -2.2405    -1.9973 C.3     
  15 C15           -4.1824    -2.8429    -1.4242 C.3     
  16 P16           -7.5645     0.9382     0.0778 P.3     
  17 O17           -8.2502     1.3156    -1.1783 O.2     
  18 O18           -7.5144    -0.6663     0.2007 O.3     
  19 O19           -8.3687     1.5477     1.3322 O.3     
  20 H20            1.9306     2.5412    -0.0027 H       
  21 H21            0.8422     3.8210     0.0145 H       
  22 H22           -3.5291     3.8636     0.0565 H       
  23 H23           -6.2215     3.7398     0.0805 H       
  24 H24           -2.4699    -2.0588     0.6037 H       
  25 H25           -3.8659    -0.9630     0.4674 H       
  26 H26           -3.5021    -0.8869    -2.0174 H       
  27 H27           -1.0854    -1.4411    -1.9907 H       
  28 H28           -1.4666    -3.0745    -1.3948 H       
  29 H29           -1.9897    -2.5760    -3.0215 H       
  30 H30           -5.1199    -2.4728    -1.0092 H       
  31 H31           -4.3458    -3.1784    -2.4483 H       
  32 H32           -3.8226    -3.6769    -0.8217 H       
  33 H33           -7.0777    -0.9859     1.0021 H       
  34 H34           -9.2822     1.2382     1.4018 H       
@<TRIPOS>BOND
   1    1    2 1
   2    1    6 1
   3    1    5 2
   4    2    3 1
   5    3    4 2
   6    3   12 1
   7    4    5 1
   8    4    7 1
   9    6   20 1
  10    6   21 1
  11    7    8 2
  12    7   11 1
  13    8    9 1
  14    8   22 1
  15    9   10 2
  16    9   23 1
  17   10   11 1
  18   10   16 1
  19   12   13 1
  20   12   24 1
  21   12   25 1
  22   13   14 1
  23   13   15 1
  24   13   26 1
  25   14   27 1
  26   14   28 1
  27   14   29 1
  28   15   30 1
  29   15   31 1
  30   15   32 1
  31   16   17 2
  32   16   18 1
  33   16   19 1
  34   18   33 1
  35   19   34 1

#	End of record

