#	Name: ASD00461044
#	Creating user name:	WinNT
#	Creation time:	15. 06. 2019 18:36

#	Modifying user name:	WinNT
#	Modification time:	15. 06. 2019 18:36

#	Program:	/corina/corina34_cracker 3.40 0067  02.08.2006

@<TRIPOS>MOLECULE
ASD00461044
  68   70    0    0    0
SMALL
NO_CHARGES


@<TRIPOS>ATOM
   1 C1            -0.0019     1.3789    -0.0451 C.ar    
   2 C2             0.0139     0.0002     0.0496 C.ar    
   3 C3             1.2188    -0.6775     0.0716 C.ar    
   4 C4             2.4076     0.0238    -0.0017 C.ar    
   5 C5             2.3918     1.4030    -0.0973 C.ar    
   6 C6             1.1873     2.0805    -0.1179 C.ar    
   7 C7             3.7209    -0.7148     0.0233 C.3     
   8 O8             4.7180     0.0638    -0.6414 O.3     
   9 C9             5.7381    -0.7136    -1.2714 C.3     
  10 C10            6.7454     0.2187    -1.9475 C.3     
  11 C11            7.9026    -0.6060    -2.5147 C.3     
  12 N12            8.9269     0.2963    -3.0576 N.3     
  13 C13           10.0561    -0.4622    -3.6121 C.3     
  14 O14            6.1011     0.9276    -3.0079 O.3     
  15 C15           11.0999     0.5094    -4.1667 C.3     
  16 C16           10.6879    -1.3151    -2.5101 C.3     
  17 C17            9.5567    -1.3709    -4.7372 C.3     
  18 C18           12.2583    -0.2688    -4.7356 C.ar    
  19 C19           12.2368    -0.6502    -6.0755 C.ar    
  20 C20           13.2666    -1.3540    -6.6205 C.ar    
  21 C21           14.3696    -1.7023    -5.8228 C.ar    
  22 C22           14.3917    -1.3138    -4.4598 C.ar    
  23 C23           13.3126    -0.5837    -3.9341 C.ar    
  24 C24           15.4512    -2.4288    -6.3498 C.ar    
  25 C25           16.5024    -2.7487    -5.5469 C.ar    
  26 C26           16.5242    -2.3666    -4.2067 C.ar    
  27 C27           15.4949    -1.6626    -3.6618 C.ar    
  28 C28            1.2360    -2.1808     0.1759 C.3     
  29 C29            1.3070    -2.7885    -1.2265 C.3     
  30 C30            1.2056    -4.2890    -1.1294 C.2     
  31 O31            1.2452    -5.0377    -2.2427 O.3     
  32 O32            1.0885    -4.8180    -0.0494 O.2     
  33 C33            4.1439    -0.9542     1.4740 C.3     
  34 H34           -0.9432     1.9080    -0.0668 H       
  35 H35           -0.9150    -0.5478     0.1068 H       
  36 H36            3.3207     1.9510    -0.1539 H       
  37 H37            1.1749     3.1579    -0.1923 H       
  38 H38            3.6090    -1.6724    -0.4853 H       
  39 H39            6.2489    -1.3184    -0.5222 H       
  40 H40            5.2878    -1.3659    -2.0196 H       
  41 H41            7.1300     0.9297    -1.2163 H       
  42 H42            8.3378    -1.2146    -1.7220 H       
  43 H43            7.5319    -1.2544    -3.3085 H       
  44 H44            8.5329     0.9159    -3.7496 H       
  45 H45            5.7339     0.3566    -3.6966 H       
  46 H46           10.6498     1.1169    -4.9517 H       
  47 H47           11.4557     1.1567    -3.3652 H       
  48 H48            9.9443    -2.0073    -2.1151 H       
  49 H49           11.5258    -1.8779    -2.9216 H       
  50 H50           11.0437    -0.6677    -1.7086 H       
  51 H51            9.1066    -0.7633    -5.5222 H       
  52 H52           10.3946    -1.9337    -5.1486 H       
  53 H53            8.8131    -2.0631    -4.3421 H       
  54 H54           11.3901    -0.3838    -6.6908 H       
  55 H55           13.2359    -1.6435    -7.6605 H       
  56 H56           13.3157    -0.2809    -2.8974 H       
  57 H57           15.4479    -2.7319    -7.3864 H       
  58 H58           17.3321    -3.3073    -5.9543 H       
  59 H59           17.3707    -2.6333    -3.5913 H       
  60 H60           15.5257    -1.3730    -2.6218 H       
  61 H61            2.1060    -2.4951     0.7525 H       
  62 H62            0.3279    -2.5209     0.6737 H       
  63 H63            0.4834    -2.4070    -1.8299 H       
  64 H64            2.2546    -2.5178    -1.6922 H       
  65 H65            1.1765    -5.9957    -2.1302 H       
  66 H66            5.0460    -1.5658     1.4932 H       
  67 H67            4.3433     0.0025     1.9569 H       
  68 H68            3.3440    -1.4697     2.0054 H       
@<TRIPOS>BOND
   1    1    2 ar
   2    1    6 ar
   3    1   34 1
   4    2    3 ar
   5    2   35 1
   6    3    4 ar
   7    3   28 1
   8    4    5 ar
   9    4    7 1
  10    5    6 ar
  11    5   36 1
  12    6   37 1
  13    7    8 1
  14    7   33 1
  15    7   38 1
  16    8    9 1
  17    9   10 1
  18    9   39 1
  19    9   40 1
  20   10   11 1
  21   10   14 1
  22   10   41 1
  23   11   12 1
  24   11   42 1
  25   11   43 1
  26   12   13 1
  27   12   44 1
  28   13   15 1
  29   13   16 1
  30   13   17 1
  31   14   45 1
  32   15   18 1
  33   15   46 1
  34   15   47 1
  35   16   48 1
  36   16   49 1
  37   16   50 1
  38   17   51 1
  39   17   52 1
  40   17   53 1
  41   18   19 ar
  42   18   23 ar
  43   19   20 ar
  44   19   54 1
  45   20   21 ar
  46   20   55 1
  47   21   22 ar
  48   21   24 ar
  49   22   23 ar
  50   22   27 ar
  51   23   56 1
  52   24   25 ar
  53   24   57 1
  54   25   26 ar
  55   25   58 1
  56   26   27 ar
  57   26   59 1
  58   27   60 1
  59   28   29 1
  60   28   61 1
  61   28   62 1
  62   29   30 1
  63   29   63 1
  64   29   64 1
  65   30   31 1
  66   30   32 2
  67   31   65 1
  68   33   66 1
  69   33   67 1
  70   33   68 1

#	End of record

