#	Name: ASD01914003
#	Creating user name:	WinNT
#	Creation time:	15. 06. 2019 20:02

#	Modifying user name:	WinNT
#	Modification time:	15. 06. 2019 20:02

#	Program:	/corina/corina34_cracker 3.40 0067  02.08.2006

@<TRIPOS>MOLECULE
ASD01914003
  51   53    0    0    0
SMALL
NO_CHARGES


@<TRIPOS>ATOM
   1 C1            -0.0167     1.3784     0.0096 C.ar    
   2 C2             0.0021    -0.0041     0.0020 C.ar    
   3 C3             1.2074    -0.6814    -0.0131 C.ar    
   4 C4             2.3802     1.4093    -0.0131 C.ar    
   5 C5             1.1695     2.0865     0.0021 C.ar    
   6 O6             3.5484     2.1036    -0.0201 O.3     
   7 C7             4.7565     1.3405    -0.0357 C.3     
   8 C8             5.9399     2.2735    -0.0414 C.ar    
   9 N9             7.1606     1.7732    -0.0557 N.ar    
  10 C10            8.2282     2.5442    -0.0613 C.ar    
  11 C11            8.1003     3.9335    -0.0517 C.ar    
  12 C12            6.8174     4.4944    -0.0366 C.ar    
  13 C13            5.7285     3.6408    -0.0374 C.ar    
  14 C14            9.2990     4.7988    -0.0571 C.2     
  15 N15           10.5284     4.2469    -0.0712 N.am    
  16 O16            9.1757     6.0080    -0.0486 O.2     
  17 C17           11.7163     5.1043    -0.0765 C.3     
  18 C18           12.9003     4.3391     0.5181 C.3     
  19 C19           12.0435     5.5135    -1.5140 C.3     
  20 C20            2.3963     0.0221    -0.0207 C.ar    
  21 C21           14.1408     5.2347     0.5126 C.3     
  22 C22           15.3248     4.4695     1.1071 C.3     
  23 C23           14.9975     4.0603     2.5446 C.3     
  24 C24           13.7570     3.1648     2.5501 C.3     
  25 C25           12.5730     3.9300     1.9556 C.3     
  26 H26           -0.9595     1.9052     0.0169 H       
  27 H27           -0.9263    -0.5558     0.0083 H       
  28 H28            1.2194    -1.7613    -0.0187 H       
  29 H29            1.1543     3.1664     0.0077 H       
  30 H30            4.7976     0.7070     0.8504 H       
  31 H31            4.7810     0.7171    -0.9295 H       
  32 H32            9.2113     2.0972    -0.0730 H       
  33 H33            6.6813     5.5658    -0.0288 H       
  34 H34            4.7241     4.0376    -0.0259 H       
  35 H35           10.6268     3.2819    -0.0780 H       
  36 H36           11.5234     5.9959     0.5201 H       
  37 H37           13.0932     3.4475    -0.0785 H       
  38 H38           12.2364     4.6219    -2.1106 H       
  39 H39           11.2000     6.0586    -1.9376 H       
  40 H40           12.9273     6.1515    -1.5179 H       
  41 H41            3.3375    -0.5074    -0.0325 H       
  42 H42           14.3740     5.5262    -0.5115 H       
  43 H43           13.9479     6.1263     1.1092 H       
  44 H44           15.5177     3.5779     0.5106 H       
  45 H45           16.2086     5.1075     1.1032 H       
  46 H46           15.8411     3.5152     2.9682 H       
  47 H47           14.8047     4.9519     3.1412 H       
  48 H48           13.9499     2.2732     1.9535 H       
  49 H49           13.5239     2.8733     3.5742 H       
  50 H50           12.3801     4.8216     2.5521 H       
  51 H51           11.6892     3.2920     1.9595 H       
@<TRIPOS>BOND
   1    1    2 ar
   2    1    5 ar
   3    1   26 1
   4    2    3 ar
   5    2   27 1
   6    3   20 ar
   7    3   28 1
   8    4    5 ar
   9    4    6 1
  10    4   20 ar
  11    5   29 1
  12    6    7 1
  13    7    8 1
  14    7   30 1
  15    7   31 1
  16    8    9 ar
  17    8   13 ar
  18    9   10 ar
  19   10   11 ar
  20   10   32 1
  21   11   12 ar
  22   11   14 1
  23   12   13 ar
  24   12   33 1
  25   13   34 1
  26   14   15 am
  27   14   16 2
  28   15   17 1
  29   15   35 1
  30   17   18 1
  31   17   19 1
  32   17   36 1
  33   18   21 1
  34   18   25 1
  35   18   37 1
  36   19   38 1
  37   19   39 1
  38   19   40 1
  39   20   41 1
  40   21   22 1
  41   21   42 1
  42   21   43 1
  43   22   23 1
  44   22   44 1
  45   22   45 1
  46   23   24 1
  47   23   46 1
  48   23   47 1
  49   24   25 1
  50   24   48 1
  51   24   49 1
  52   25   50 1
  53   25   51 1

#	End of record

