#	Name: ASD01230037
#	Creating user name:	WinNT
#	Creation time:	15. 06. 2019 19:11

#	Modifying user name:	WinNT
#	Modification time:	15. 06. 2019 19:11

#	Program:	/corina/corina34_cracker 3.40 0067  02.08.2006

@<TRIPOS>MOLECULE
ASD01230037
  30   32    0    0    0
SMALL
NO_CHARGES


@<TRIPOS>ATOM
   1 C1            -0.0167     1.3775     0.0096 C.ar    
   2 C2             0.0021    -0.0041     0.0020 C.ar    
   3 C3            -1.1888    -0.7188    -0.0040 C.ar    
   4 C4            -2.4237    -0.0415    -0.0026 C.ar    
   5 C5            -2.4156     1.3429     0.0319 C.ar    
   6 C6            -1.2284     2.0474     0.0306 C.ar    
   7 N7            -3.5786    -0.8080    -0.0741 N.3     
   8 C8            -4.7747    -0.2605     0.5525 C.3     
   9 N9            -5.1063     1.0353    -0.0768 N.am    
  10 S10           -3.9482     2.2238     0.1183 S.o2    
  11 O11           -4.0724     2.7076     1.4486 O.2     
  12 O12           -4.0120     3.0559    -1.0319 O.2     
  13 C13           -5.9407    -1.2330     0.3641 C.3     
  14 Cl14           1.4726     2.2695     0.0002 Cl      
  15 C15           -1.1599    -2.2022    -0.0125 C.2     
  16 C16           -0.3906    -2.9364    -0.9132 C.2     
  17 C17           -0.4821    -4.2575    -0.7816 C.2     
  18 S18           -1.5820    -4.6541     0.5314 S.3     
  19 C19           -1.8699    -2.9493     0.8525 C.2     
  20 H20            0.9455    -0.5297     0.0004 H       
  21 H21           -1.2448     3.1273     0.0367 H       
  22 H22           -3.7657    -1.0921    -1.0240 H       
  23 H23           -4.5924    -0.1120     1.6169 H       
  24 H24           -5.9313     1.1838    -0.5649 H       
  25 H25           -5.6944    -2.1893     0.8256 H       
  26 H26           -6.8352    -0.8230     0.8330 H       
  27 H27           -6.1232    -1.3796    -0.7005 H       
  28 H28            0.2322    -2.4689    -1.6614 H       
  29 H29            0.0414    -4.9791    -1.3912 H       
  30 H30           -2.5210    -2.5616     1.6220 H       
@<TRIPOS>BOND
   1    1    2 ar
   2    1   14 1
   3    1    6 ar
   4    2    3 ar
   5    2   20 1
   6    3    4 ar
   7    3   15 1
   8    4    5 ar
   9    4    7 1
  10    5    6 ar
  11    5   10 1
  12    6   21 1
  13    7    8 1
  14    7   22 1
  15    8    9 1
  16    8   13 1
  17    8   23 1
  18    9   10 am
  19    9   24 1
  20   10   11 2
  21   10   12 2
  22   13   25 1
  23   13   26 1
  24   13   27 1
  25   15   16 1
  26   15   19 2
  27   16   17 2
  28   16   28 1
  29   17   18 1
  30   17   29 1
  31   18   19 1
  32   19   30 1

#	End of record

