#	Name: ASD01881672
#	Creating user name:	WinNT
#	Creation time:	15. 06. 2019 19:43

#	Modifying user name:	WinNT
#	Modification time:	15. 06. 2019 19:43

#	Program:	/corina/corina34_cracker 3.40 0067  02.08.2006

@<TRIPOS>MOLECULE
ASD01881672
  44   46    0    0    0
SMALL
NO_CHARGES


@<TRIPOS>ATOM
   1 C1            -0.1130     1.5455     0.1162 C.3     
   2 C2             0.0016     0.0482    -0.0101 C.2     
   3 C3            -1.2365    -0.8094     0.0428 C.3     
   4 C4            -1.1384    -1.7743     1.2261 C.3     
   5 N5             1.1501    -0.4950    -0.1622 N.2     
   6 C6            -2.4679     0.0826     0.2128 C.3     
   7 C7            -1.3602    -1.6071    -1.2569 C.3     
   8 O8             1.2645    -1.9053    -0.2177 O.3     
   9 O9             1.1880     2.1312     0.0364 O.3     
  10 N10            1.7622     7.5665     0.3993 N.pl3   
  11 N11            3.1586     7.5835     0.2672 N.2     
  12 N12            3.5907     6.3793     0.1335 N.2     
  13 C13            2.5637     5.5068     0.1647 C.ar    
  14 C14            1.3801     6.2459     0.3345 C.ar    
  15 C15            2.4902     4.1107     0.0638 C.ar    
  16 C16            1.2624     3.4856     0.1336 C.ar    
  17 C17            0.0984     4.2315     0.3023 C.ar    
  18 C18            0.1544     5.5933     0.4008 C.ar    
  19 C19            0.8842     8.7256     0.5775 C.3     
  20 C20            0.4412     9.2452    -0.7916 C.3     
  21 C21           -0.5784    10.3857    -0.8184 C.3     
  22 C22            0.8815    10.6559    -1.1881 C.3     
  23 Br23           4.0653     3.0898    -0.1656 Br      
  24 H24           -0.7354     1.9316    -0.6910 H       
  25 H25           -0.5658     1.7956     1.0756 H       
  26 H26           -0.9403    -1.2116     2.1383 H       
  27 H27           -2.0777    -2.3173     1.3309 H       
  28 H28           -0.3274    -2.4814     1.0520 H       
  29 H29           -2.5377     0.7701    -0.6302 H       
  30 H30           -3.3634    -0.5376     0.2510 H       
  31 H31           -2.3798     0.6510     1.1387 H       
  32 H32           -0.4829    -2.2426    -1.3781 H       
  33 H33           -2.2557    -2.2274    -1.2187 H       
  34 H34           -1.4300    -0.9197    -2.0999 H       
  35 H35            2.1707    -2.2221    -0.3344 H       
  36 H36           -0.8565     3.7296     0.3549 H       
  37 H37           -0.7540     6.1627     0.5312 H       
  38 H38            0.0080     8.4322     1.1557 H       
  39 H39            1.4227     9.5113     1.1075 H       
  40 H40            0.3795     8.4963    -1.5812 H       
  41 H41           -1.3106    10.3873    -1.6258 H       
  42 H42           -0.9336    10.7658     0.1394 H       
  43 H43            1.4867    11.2137    -0.4736 H       
  44 H44            1.1097    10.8352    -2.2388 H       
@<TRIPOS>BOND
   1    1    2 1
   2    1    9 1
   3    1   24 1
   4    1   25 1
   5    2    3 1
   6    2    5 2
   7    3    4 1
   8    3    6 1
   9    3    7 1
  10    4   26 1
  11    4   27 1
  12    4   28 1
  13    5    8 1
  14    6   29 1
  15    6   30 1
  16    6   31 1
  17    7   32 1
  18    7   33 1
  19    7   34 1
  20    8   35 1
  21    9   16 1
  22   10   11 1
  23   10   14 1
  24   10   19 1
  25   11   12 2
  26   12   13 1
  27   13   14 ar
  28   13   15 ar
  29   14   18 ar
  30   15   16 ar
  31   15   23 1
  32   16   17 ar
  33   17   18 ar
  34   17   36 1
  35   18   37 1
  36   19   20 1
  37   19   38 1
  38   19   39 1
  39   20   21 1
  40   20   22 1
  41   20   40 1
  42   21   22 1
  43   21   41 1
  44   21   42 1
  45   22   43 1
  46   22   44 1

#	End of record

