#	Name: ASD03910120
#	Creating user name:	WinNT
#	Creation time:	15. 06. 2019 20:47

#	Modifying user name:	WinNT
#	Modification time:	15. 06. 2019 20:47

#	Program:	/corina/corina34_cracker 3.40 0067  02.08.2006

@<TRIPOS>MOLECULE
ASD03910120
  44   45    0    0    0
SMALL
NO_CHARGES


@<TRIPOS>ATOM
   1 O1            -0.9587     1.7222    -0.2237 O.3     
   2 C2            -1.0582     0.3754    -0.1092 C.ar    
   3 C3            -1.0806    -0.2211     1.1622 C.ar    
   4 C4            -1.1830    -1.6049     1.2750 C.ar    
   5 C5            -1.2625    -2.3895     0.1229 C.ar    
   6 C6            -1.2392    -1.7823    -1.1403 C.ar    
   7 C7            -1.1437    -0.4136    -1.2493 C.ar    
   8 C8            -1.3702    -3.8509     0.2344 C.2     
   9 O9            -1.4393    -4.5320    -0.7667 O.2     
  10 C10           -0.9956     0.6158     2.3738 C.2     
  11 O11           -0.9059     1.8232     2.2730 O.2     
  12 O12           -1.0173     0.0412     3.5923 O.3     
  13 O13            3.3978     6.0467    -0.6941 O.3     
  14 C14            3.4971     7.3944    -0.7980 C.ar    
  15 C15            3.4614     8.1919     0.3577 C.ar    
  16 C16            3.5637     9.5758     0.2462 C.ar    
  17 C17            3.7011    10.1606    -1.0141 C.ar    
  18 C18            3.7355     9.3539    -2.1600 C.ar    
  19 C19            3.6398     7.9855    -2.0469 C.ar    
  20 C20            0.2796     2.2429    -0.2428 C.2     
  21 C21            2.1595     5.5260    -0.6750 C.2     
  22 C22            3.8092    11.6209    -1.1393 C.2     
  23 O23            3.9286    12.1284    -2.2344 O.2     
  24 O24            1.2005     6.2419    -0.8412 O.2     
  25 O25            1.2386     1.5270    -0.0766 O.2     
  26 C26            1.9665     4.0490    -0.4462 C.3     
  27 C27            0.4726     3.7199    -0.4715 C.3     
  28 C28            3.3154     7.5652     1.6849 C.2     
  29 O29            3.2259     6.3573     1.7798 O.2     
  30 O30            3.2814     8.3323     2.7921 O.3     
  31 H31           -1.2004    -2.0696     2.2498 H       
  32 H32           -1.3004    -2.3901    -2.0309 H       
  33 H33           -1.1306     0.0485    -2.2253 H       
  34 H34           -1.3879    -4.3184     1.2078 H       
  35 H35           -0.9590     0.6307     4.3567 H       
  36 H36            3.5365    10.1945     1.1310 H       
  37 H37            3.8414     9.8073    -3.1344 H       
  38 H38            3.6714     7.3692    -2.9331 H       
  39 H39            3.7824    12.2421    -0.2563 H       
  40 H40            2.4750     3.4902    -1.2319 H       
  41 H41            2.3828     3.7740     0.5229 H       
  42 H42            0.0563     3.9949    -1.4407 H       
  43 H43           -0.0360     4.2787     0.3141 H       
  44 H44            3.1844     7.8764     3.6393 H       
@<TRIPOS>BOND
   1    1    2 1
   2    1   20 1
   3    2    3 ar
   4    2    7 ar
   5    3    4 ar
   6    3   10 1
   7    4    5 ar
   8    4   31 1
   9    5    6 ar
  10    5    8 1
  11    6    7 ar
  12    6   32 1
  13    7   33 1
  14    8    9 2
  15    8   34 1
  16   10   11 2
  17   10   12 1
  18   12   35 1
  19   13   14 1
  20   13   21 1
  21   14   15 ar
  22   14   19 ar
  23   15   16 ar
  24   15   28 1
  25   16   17 ar
  26   16   36 1
  27   17   18 ar
  28   17   22 1
  29   18   19 ar
  30   18   37 1
  31   19   38 1
  32   20   25 2
  33   20   27 1
  34   21   24 2
  35   21   26 1
  36   22   23 2
  37   22   39 1
  38   26   27 1
  39   26   40 1
  40   26   41 1
  41   27   42 1
  42   27   43 1
  43   28   29 2
  44   28   30 1
  45   30   44 1

#	End of record

