#	Name: ASD08070198
#	Creating user name:	WinNT
#	Creation time:	15. 06. 2019 21:14

#	Modifying user name:	WinNT
#	Modification time:	15. 06. 2019 21:14

#	Program:	/corina/corina34_cracker 3.40 0067  02.08.2006

@<TRIPOS>MOLECULE
ASD08070198
  34   35    0    0    0
SMALL
NO_CHARGES


@<TRIPOS>ATOM
   1 C1            -0.0158     1.3146     0.0093 C.ar    
   2 N2             0.0021    -0.0041     0.0020 N.ar    
   3 C3            -1.1061    -0.7185     0.0088 C.ar    
   4 C4            -2.3442    -0.1073     0.0239 C.ar    
   5 C5            -2.4115     1.2898     0.0320 C.ar    
   6 C6            -1.2128     2.0080     0.0302 C.ar    
   7 N7            -3.7611     3.3358     0.0554 N.am    
   8 C8            -3.7177     1.9888     0.0477 C.2     
   9 O9            -4.7499     1.3476     0.0537 O.2     
  10 C10           -5.0527     4.0270     0.0709 C.3     
  11 C11           -4.8799     5.4170     0.6865 C.3     
  12 C12           -5.5748     4.1646    -1.3607 C.3     
  13 C13           -6.9237     4.8864    -1.3445 C.3     
  14 C14           -6.7509     6.2764    -0.7289 C.3     
  15 C15           -6.2288     6.1389     0.7027 C.3     
  16 C16           -4.3578     5.2795     2.1180 C.3     
  17 Cl17           1.4823     2.1918    -0.0003 Cl      
  18 H18           -1.0446    -1.7967     0.0020 H       
  19 H19           -3.2474    -0.6993     0.0290 H       
  20 H20           -1.2208     3.0880     0.0362 H       
  21 H21           -2.9371     3.8476     0.0506 H       
  22 H22           -5.7648     3.4531     0.6638 H       
  23 H23           -4.1677     5.9910     0.0936 H       
  24 H24           -4.8626     4.7385    -1.9536 H       
  25 H25           -5.6979     3.1743    -1.7992 H       
  26 H26           -7.2956     4.9844    -2.3643 H       
  27 H27           -7.6358     4.3125    -0.7516 H       
  28 H28           -6.0387     6.8504    -1.3218 H       
  29 H29           -7.7118     6.7907    -0.7173 H       
  30 H30           -6.9409     5.5650     1.2956 H       
  31 H31           -6.1057     7.1292     1.1412 H       
  32 H32           -3.3968     4.7652     2.1065 H       
  33 H33           -4.2347     6.2698     2.5566 H       
  34 H34           -5.0699     4.7055     2.7109 H       
@<TRIPOS>BOND
   1    1    2 ar
   2    1   17 1
   3    1    6 ar
   4    2    3 ar
   5    3    4 ar
   6    3   18 1
   7    4    5 ar
   8    4   19 1
   9    5    6 ar
  10    5    8 1
  11    6   20 1
  12    7    8 am
  13    7   10 1
  14    7   21 1
  15    8    9 2
  16   10   11 1
  17   10   12 1
  18   10   22 1
  19   11   16 1
  20   11   15 1
  21   11   23 1
  22   12   13 1
  23   12   24 1
  24   12   25 1
  25   13   14 1
  26   13   26 1
  27   13   27 1
  28   14   15 1
  29   14   28 1
  30   14   29 1
  31   15   30 1
  32   15   31 1
  33   16   32 1
  34   16   33 1
  35   16   34 1

#	End of record

