#	Name: ASD01122007
#	Creating user name:	WinNT
#	Creation time:	15. 06. 2019 18:59

#	Modifying user name:	WinNT
#	Modification time:	15. 06. 2019 18:59

#	Program:	/corina/corina34_cracker 3.40 0067  02.08.2006

@<TRIPOS>MOLECULE
ASD01122007
  35   36    0    0    0
SMALL
NO_CHARGES


@<TRIPOS>ATOM
   1 C1            -0.0164     1.3567     0.0095 C.2     
   2 N2             0.0021    -0.0041     0.0020 N.pl3   
   3 C3            -1.3038    -0.4325     0.0122 C.2     
   4 C4            -2.0827     0.6803     0.0256 C.2     
   5 N5            -1.2624     1.7624     0.0293 N.2     
   6 N6             1.0982     2.1776     0.0033 N.pl3   
   7 C7            -3.5605     0.7082     0.0394 C.2     
   8 C8            -4.3352     1.6214     0.6830 C.2     
   9 C9            -5.6764     1.2684     0.4276 C.2     
  10 C10           -5.6537     0.1697    -0.3507 C.2     
  11 O11           -4.3733    -0.1630    -0.5883 O.3     
  12 C12           -1.7800    -1.8623     0.0090 C.3     
  13 C13           -2.0735    -2.2989    -1.4277 C.3     
  14 C14           -0.7739    -2.3034    -2.2350 C.3     
  15 C15           -2.6743    -3.7060    -1.4204 C.3     
  16 P16           -7.1095    -0.7112    -0.9795 P.3     
  17 O17           -7.8538     0.1669    -1.9097 O.2     
  18 O18           -6.6383    -2.0400    -1.7571 O.3     
  19 O19           -8.0630    -1.1196     0.2518 O.3     
  20 H20            0.7914    -0.5677    -0.0088 H       
  21 H21            1.9868     1.7889    -0.0073 H       
  22 H22            0.9906     3.1416     0.0095 H       
  23 H23           -3.9901     2.4558     1.2755 H       
  24 H24           -6.5555     1.7819     0.7881 H       
  25 H25           -1.0072    -2.5036     0.4330 H       
  26 H26           -2.6881    -1.9441     0.6064 H       
  27 H27           -2.7806    -1.6043    -1.8812 H       
  28 H28           -0.9830    -2.6145    -3.2585 H       
  29 H29           -0.3459    -1.3010    -2.2401 H       
  30 H30           -0.0668    -2.9980    -1.7814 H       
  31 H31           -3.6002    -3.7028    -0.8453 H       
  32 H32           -2.8834    -4.0171    -2.4439 H       
  33 H33           -1.9672    -4.4006    -0.9669 H       
  34 H34           -6.1434    -2.6628    -1.2073 H       
  35 H35           -8.8629    -1.5952    -0.0111 H       
@<TRIPOS>BOND
   1    1    2 1
   2    1    6 1
   3    1    5 2
   4    2    3 1
   5    2   20 1
   6    3    4 2
   7    3   12 1
   8    4    5 1
   9    4    7 1
  10    6   21 1
  11    6   22 1
  12    7    8 2
  13    7   11 1
  14    8    9 1
  15    8   23 1
  16    9   10 2
  17    9   24 1
  18   10   11 1
  19   10   16 1
  20   12   13 1
  21   12   25 1
  22   12   26 1
  23   13   14 1
  24   13   15 1
  25   13   27 1
  26   14   28 1
  27   14   29 1
  28   14   30 1
  29   15   31 1
  30   15   32 1
  31   15   33 1
  32   16   17 2
  33   16   18 1
  34   16   19 1
  35   18   34 1
  36   19   35 1

#	End of record

