#	Name: ASD06232001
#	Creating user name:	WinNT
#	Creation time:	15. 06. 2019 21:05

#	Modifying user name:	WinNT
#	Modification time:	15. 06. 2019 21:05

#	Program:	/corina/corina34_cracker 3.40 0067  02.08.2006

@<TRIPOS>MOLECULE
ASD06232001
  68   71    0    0    0
SMALL
NO_CHARGES


@<TRIPOS>ATOM
   1 C1             0.1329     3.8781    -1.2657 C.3     
   2 C2            -0.4541     2.5192    -0.8942 C.3     
   3 C3            -0.0144     2.0862     0.4995 C.3     
   4 C4             1.5035     2.1209     0.6583 C.3     
   5 C5             2.0491     3.5060     0.3037 C.3     
   6 C6             1.6552     3.8650    -1.1239 C.3     
   7 C7             2.1511     1.0357    -0.1943 C.3     
   8 C8             3.6772     1.0623    -0.0204 C.3     
   9 C9             4.1723     2.4382    -0.4655 C.3     
  10 C10            3.5771     3.4984     0.4613 C.3     
  11 C11            5.6552     2.5484    -0.5730 C.3     
  12 C12            6.2740     3.5295     0.4467 C.3     
  13 C13            5.6977     4.9064     0.2410 C.3     
  14 C14            4.1646     4.8732     0.1946 C.3     
  15 C15            6.5283     1.3055    -0.3537 C.3     
  16 C16            7.9527     1.9401    -0.3736 C.3     
  17 C17            7.7733     3.4055     0.0944 C.3     
  18 H18            1.7433     1.9194     1.7133 H       
  19 C19            1.4684     4.5354     1.2826 C.3     
  20 C20            6.1321     3.0686     1.8949 C.3     
  21 C21            8.6179     3.6784     1.3374 C.3     
  22 O22            4.2434     0.0442    -0.8476 O.3     
  23 O23           -0.1072     1.5409    -1.8704 O.3     
  24 C24            8.4158     5.1279     1.7832 C.3     
  25 C25           10.0947     3.4462     1.0115 C.3     
  26 C26           10.9280     3.5977     2.2857 C.3     
  27 C27           12.3826     3.3691     1.9648 C.2     
  28 O28           12.7183     3.1113     0.8331 O.2     
  29 O29           13.3053     3.4517     2.9362 O.3     
  30 H30           -0.1166     4.0935    -2.3131 H       
  31 H31           -0.3057     4.6583    -0.6497 H       
  32 H32           -1.5534     2.6151    -0.8900 H       
  33 H33           -0.4886     2.7181     1.2512 H       
  34 H34           -0.3582     1.0562     0.6713 H       
  35 H35            2.0705     3.1375    -1.8222 H       
  36 H36            2.0435     4.8552    -1.3749 H       
  37 H37            1.7753     0.0581     0.1079 H       
  38 H38            1.9274     1.2004    -1.2473 H       
  39 H39            3.9326     0.8889     1.0196 H       
  40 H40            3.7522     2.6121    -1.4778 H       
  41 H41            3.7492     3.2174     1.5033 H       
  42 H42            5.8941     2.9305    -1.5943 H       
  43 H43            6.0217     5.5654     1.0591 H       
  44 H44            6.0831     5.3309    -0.6959 H       
  45 H45            3.8338     5.2213    -0.7933 H       
  46 H46            3.7888     5.5918     0.9351 H       
  47 H47            6.3258     0.8116     0.5849 H       
  48 H48            6.4281     0.6136    -1.1930 H       
  49 H49            8.6064     1.4024     0.3094 H       
  50 H50            8.3524     1.9148    -1.3857 H       
  51 H51            8.0180     4.0981    -0.7043 H       
  52 H52            1.7599     4.2741     2.2998 H       
  53 H53            1.8516     5.5260     1.0378 H       
  54 H54            0.3811     4.5371     1.2053 H       
  55 H55            6.7439     2.1809     2.0553 H       
  56 H56            6.4629     3.8635     2.5633 H       
  57 H57            5.0880     2.8322     2.1003 H       
  58 H58            8.3126     3.0058     2.1390 H       
  59 H59            3.9381    -0.8488    -0.6368 H       
  60 H60           -0.4247     1.7440    -2.7609 H       
  61 H61            9.1275     5.3677     2.5732 H       
  62 H62            8.5757     5.7944     0.9356 H       
  63 H63            7.4003     5.2545     2.1583 H       
  64 H64           10.2245     2.4412     0.6099 H       
  65 H65           10.4233     4.1777     0.2733 H       
  66 H66           10.7982     4.6027     2.6874 H       
  67 H67           10.5995     2.8662     3.0239 H       
  68 H68           14.2254     3.2971     2.6820 H       
@<TRIPOS>BOND
   1    1    2 1
   2    1    6 1
   3    1   30 1
   4    1   31 1
   5    2    3 1
   6    2   23 1
   7    2   32 1
   8    3    4 1
   9    3   33 1
  10    3   34 1
  11    4    5 1
  12    4    7 1
  13    4   18 1
  14    5    6 1
  15    5   19 1
  16    5   10 1
  17    6   35 1
  18    6   36 1
  19    7    8 1
  20    7   37 1
  21    7   38 1
  22    8    9 1
  23    8   22 1
  24    8   39 1
  25    9   10 1
  26    9   11 1
  27    9   40 1
  28   10   14 1
  29   10   41 1
  30   11   12 1
  31   11   15 1
  32   11   42 1
  33   12   13 1
  34   12   20 1
  35   12   17 1
  36   13   14 1
  37   13   43 1
  38   13   44 1
  39   14   45 1
  40   14   46 1
  41   15   16 1
  42   15   47 1
  43   15   48 1
  44   16   17 1
  45   16   49 1
  46   16   50 1
  47   17   21 1
  48   17   51 1
  49   19   52 1
  50   19   53 1
  51   19   54 1
  52   20   55 1
  53   20   56 1
  54   20   57 1
  55   21   24 1
  56   21   25 1
  57   21   58 1
  58   22   59 1
  59   23   60 1
  60   24   61 1
  61   24   62 1
  62   24   63 1
  63   25   26 1
  64   25   64 1
  65   25   65 1
  66   26   27 1
  67   26   66 1
  68   26   67 1
  69   27   28 2
  70   27   29 1
  71   29   68 1

#	End of record

