#	Name: ASD01150350
#	Creating user name:	WinNT
#	Creation time:	15. 06. 2019 19:04

#	Modifying user name:	WinNT
#	Modification time:	15. 06. 2019 19:04

#	Program:	/corina/corina34_cracker 3.40 0067  02.08.2006

@<TRIPOS>MOLECULE
ASD01150350
  66   69    0    0    0
SMALL
NO_CHARGES


@<TRIPOS>ATOM
   1 N1            -0.0169     1.3925     0.0097 N.pl3   
   2 C2             0.0021    -0.0041     0.0020 C.2     
   3 C3            -1.3278    -0.4052     0.0134 C.2     
   4 N4            -2.0856     0.6946     0.0270 N.2     
   5 C5            -1.3233     1.7681     0.0302 C.2     
   6 C6             1.1393    -0.8369    -0.0144 C.2     
   7 C7             1.0965     2.2427     0.0036 C.ar    
   8 C8             1.3308     3.0744    -1.0833 C.ar    
   9 C9             2.4293     3.9116    -1.0863 C.ar    
  10 C10            3.2954     3.9220    -0.0084 C.ar    
  11 C11            3.0648     3.0949     1.0755 C.ar    
  12 C12            1.9648     2.2597     1.0870 C.ar    
  13 N13           -1.7778     3.0666     0.0433 N.3     
  14 C14           -3.2461     3.1105     0.0530 C.3     
  15 C15           -1.2214     3.8076     1.1832 C.3     
  16 O16            1.0073    -2.0475    -0.0195 O.2     
  17 O17            2.3750    -0.2923    -0.0246 O.3     
  18 C18            3.4820    -1.1958    -0.0411 C.3     
  19 C19            3.4079    -2.0703    -1.2943 C.3     
  20 C20            4.7891    -0.4007    -0.0506 C.3     
  21 C21            3.4342    -2.0837     1.2040 C.3     
  22 N22           -1.7879    -1.7175     0.0106 N.am    
  23 C23           -3.1123    -1.9673     0.0228 C.2     
  24 O24           -3.9027    -1.0476     0.0362 O.2     
  25 C25           -3.6109    -3.3894     0.0199 C.3     
  26 N26           -5.0758    -3.3933     0.0349 N.pl3   
  27 C27           -5.8706    -3.4967     1.1341 C.2     
  28 N28           -7.1235    -3.4658     0.7845 N.2     
  29 C29           -7.2180    -3.3405    -0.5642 C.ar    
  30 C30           -5.9057    -3.2867    -1.0632 C.ar    
  31 C31           -8.2946    -3.2598    -1.4515 C.ar    
  32 C32           -8.0640    -3.1352    -2.7921 C.ar    
  33 C33           -6.7679    -3.0874    -3.2860 C.ar    
  34 C34           -5.6906    -3.1584    -2.4288 C.ar    
  35 O35            5.8961    -1.3041    -0.0671 O.3     
  36 C36            7.1718    -0.6602    -0.0771 C.3     
  37 H37            0.6549     3.0665    -1.9256 H       
  38 H38            2.6122     4.5584    -1.9316 H       
  39 H39            4.1539     4.5772    -0.0132 H       
  40 H40            3.7432     3.1050     1.9158 H       
  41 H41            1.7850     1.6142     1.9340 H       
  42 H42           -3.6189     2.6007     0.9414 H       
  43 H43           -3.5785     4.1485     0.0633 H       
  44 H44           -3.6303     2.6147    -0.8385 H       
  45 H45           -0.1337     3.8186     1.1134 H       
  46 H46           -1.5968     4.8308     1.1695 H       
  47 H47           -1.5210     3.3231     2.1125 H       
  48 H48            3.4419    -1.4378    -2.1813 H       
  49 H49            4.2523    -2.7595    -1.3069 H       
  50 H50            2.4767    -2.6368    -1.2875 H       
  51 H51            4.8231     0.2319    -0.9376 H       
  52 H52            4.8419     0.2224     0.8422 H       
  53 H53            2.5030    -2.6502     1.2108 H       
  54 H54            4.2786    -2.7729     1.1914 H       
  55 H55            3.4870    -1.4607     2.0968 H       
  56 H56           -1.1557    -2.4531    -0.0001 H       
  57 H57           -3.2554    -3.8972    -0.8767 H       
  58 H58           -3.2371    -3.9074     0.9031 H       
  59 H59           -5.5136    -3.5910     2.1490 H       
  60 H60           -9.3073    -3.2963    -1.0780 H       
  61 H61           -8.8987    -3.0735    -3.4746 H       
  62 H62           -6.6022    -2.9890    -4.3486 H       
  63 H63           -4.6840    -3.1208    -2.8183 H       
  64 H64            7.9591    -1.4139    -0.0895 H       
  65 H65            7.2552    -0.0330    -0.9647 H       
  66 H66            7.2740    -0.0425     0.8152 H       
@<TRIPOS>BOND
   1    1    2 1
   2    1    7 1
   3    1    5 1
   4    2    3 2
   5    2    6 1
   6    3    4 1
   7    3   22 1
   8    4    5 2
   9    5   13 1
  10    6   16 2
  11    6   17 1
  12    7    8 ar
  13    7   12 ar
  14    8    9 ar
  15    8   37 1
  16    9   10 ar
  17    9   38 1
  18   10   11 ar
  19   10   39 1
  20   11   12 ar
  21   11   40 1
  22   12   41 1
  23   13   14 1
  24   13   15 1
  25   14   42 1
  26   14   43 1
  27   14   44 1
  28   15   45 1
  29   15   46 1
  30   15   47 1
  31   17   18 1
  32   18   19 1
  33   18   20 1
  34   18   21 1
  35   19   48 1
  36   19   49 1
  37   19   50 1
  38   20   35 1
  39   20   51 1
  40   20   52 1
  41   21   53 1
  42   21   54 1
  43   21   55 1
  44   22   23 am
  45   22   56 1
  46   23   24 2
  47   23   25 1
  48   25   26 1
  49   25   57 1
  50   25   58 1
  51   26   27 1
  52   26   30 1
  53   27   28 2
  54   27   59 1
  55   28   29 1
  56   29   30 ar
  57   29   31 ar
  58   30   34 ar
  59   31   32 ar
  60   31   60 1
  61   32   33 ar
  62   32   61 1
  63   33   34 ar
  64   33   62 1
  65   34   63 1
  66   35   36 1
  67   36   64 1
  68   36   65 1
  69   36   66 1

#	End of record

