#	Name: ASD03740139
#	Creating user name:	WinNT
#	Creation time:	15. 06. 2019 20:46

#	Modifying user name:	WinNT
#	Modification time:	15. 06. 2019 20:46

#	Program:	/corina/corina34_cracker 3.40 0067  02.08.2006

@<TRIPOS>MOLECULE
ASD03740139
  28   30    0    0    0
SMALL
NO_CHARGES


@<TRIPOS>ATOM
   1 C1            -0.0169     1.3933     0.0097 C.ar    
   2 C2             0.0021    -0.0041     0.0020 C.ar    
   3 C3            -1.1406    -0.7345     0.0095 C.ar    
   4 C4            -2.3891    -0.0762     0.0254 C.ar    
   5 C5            -2.4089     1.3949     0.0335 C.ar    
   6 C6            -1.1810     2.0908     0.0302 C.ar    
   7 N7            -3.6484    -0.4741     0.0358 N.2     
   8 N8            -4.4807     0.6510     0.0501 N.pl3   
   9 C9            -3.7400     1.7677     0.0487 C.2     
  10 C10           -6.6320    -1.5691    -0.9503 C.ar    
  11 C11           -6.4380    -0.2084    -1.0987 C.ar    
  12 C12           -6.6963     0.3987    -2.3135 C.ar    
  13 C13           -7.1488    -0.3544    -3.3804 C.ar    
  14 C14           -7.3431    -1.7162    -3.2325 C.ar    
  15 C15           -7.0844    -2.3233    -2.0165 C.ar    
  16 C16           -5.9452     0.6134     0.0644 C.3     
  17 Cl17          -7.9119    -2.6627    -4.5720 Cl      
  18 Br18           1.6219     2.3367    -0.0009 Br      
  19 H19            0.9528    -0.5163    -0.0105 H       
  20 H20           -1.0955    -1.8136     0.0029 H       
  21 H21           -1.1680     3.1707     0.0363 H       
  22 H22           -4.1164     2.7800     0.0582 H       
  23 H23           -6.4258    -2.0436    -0.0023 H       
  24 H24           -6.5449     1.4618    -2.4287 H       
  25 H25           -7.3509     0.1201    -4.3293 H       
  26 H26           -7.2356    -3.3863    -1.9006 H       
  27 H27           -6.2880     0.1653     0.9970 H       
  28 H28           -6.3355     1.6279    -0.0163 H       
@<TRIPOS>BOND
   1    1    2 ar
   2    1   18 1
   3    1    6 ar
   4    2    3 ar
   5    2   19 1
   6    3    4 ar
   7    3   20 1
   8    4    5 ar
   9    4    7 2
  10    5    6 ar
  11    5    9 2
  12    6   21 1
  13    7    8 1
  14    8    9 1
  15    8   16 1
  16    9   22 1
  17   10   11 ar
  18   10   15 ar
  19   10   23 1
  20   11   12 ar
  21   11   16 1
  22   12   13 ar
  23   12   24 1
  24   13   14 ar
  25   13   25 1
  26   14   15 ar
  27   14   17 1
  28   15   26 1
  29   16   27 1
  30   16   28 1

#	End of record

