#	Name: ASD07930070
#	Creating user name:	WinNT
#	Creation time:	15. 06. 2019 21:11

#	Modifying user name:	WinNT
#	Modification time:	15. 06. 2019 21:11

#	Program:	/corina/corina34_cracker 3.40 0067  02.08.2006

@<TRIPOS>MOLECULE
ASD07930070
  56   60    0    0    0
SMALL
NO_CHARGES


@<TRIPOS>ATOM
   1 C1            -0.7078     1.2196    -0.7500 C.2     
   2 C2            -0.4548    -0.1967    -0.4045 C.2     
   3 N3             0.3582     2.0084    -1.1193 N.am    
   4 N4             0.7949    -0.5595    -0.0286 N.am    
   5 C5             1.8365     0.4743     0.0541 C.3     
   6 C6             1.6970     1.4048    -1.1599 C.3     
   7 C7            -1.9709     1.7244    -0.7070 C.2     
   8 C8            -2.2148     3.0648    -1.0312 C.2     
   9 C9            -1.1706     3.8710    -1.3931 C.2     
  10 C10            0.1787     3.3023    -1.4372 C.2     
  11 O11           -1.3502    -1.0177    -0.4566 O.2     
  12 O12            1.1291     3.9951    -1.7589 O.2     
  13 C13            1.1028    -1.9561     0.2891 C.3     
  14 C14            1.6874    -2.6433    -0.9466 C.3     
  15 O15            2.9593    -2.0690    -1.2540 O.3     
  16 C16            3.5635    -2.4843    -2.3981 C.ar    
  17 C17            4.8603    -2.0581    -2.7014 C.ar    
  18 C18            5.4714    -2.4894    -3.8760 C.ar    
  19 C19            4.7957    -3.3342    -4.7341 C.ar    
  20 C20            3.5131    -3.7541    -4.4313 C.ar    
  21 C21            2.8992    -3.3358    -3.2650 C.ar    
  22 S22            7.2654     0.3977    -0.7044 S.3     
  23 C23            5.8275    -0.0107     0.1245 C.2     
  24 N24            5.1068    -0.8059    -0.5880 N.2     
  25 C25            5.5815    -1.1501    -1.7763 C.2     
  26 C26            6.7782    -0.6029    -2.0701 C.2     
  27 C27            5.4554     0.4890     1.4967 C.3     
  28 F28            5.8058    -0.4701     2.4530 F       
  29 F29            6.1384     1.6812     1.7599 F       
  30 F30            4.0766     0.7196     1.5510 F       
  31 C31           -0.9284     6.2951    -1.0401 C.2     
  32 N32           -1.3368     7.3737    -1.6509 N.2     
  33 C33           -2.0604     7.0287    -2.7265 C.2     
  34 C34           -2.1056     5.6845    -2.7897 C.2     
  35 N35           -1.3881     5.2123    -1.7207 N.pl3   
  36 C36           -2.7109     7.9812    -3.6964 C.3     
  37 H37            1.7104     1.0485     0.9720 H       
  38 H38            2.8201     0.0048     0.0446 H       
  39 H39            1.8146     0.8310    -2.0792 H       
  40 H40            2.4551     2.1867    -1.1137 H       
  41 H41           -2.7929     1.0852    -0.4205 H       
  42 H42           -3.2197     3.4588    -0.9962 H       
  43 H43            1.8278    -1.9924     1.1022 H       
  44 H44            0.1904    -2.4693     0.5927 H       
  45 H45            1.8082    -3.7081    -0.7472 H       
  46 H46            1.0130    -2.5061    -1.7918 H       
  47 H47            6.4727    -2.1632    -4.1157 H       
  48 H48            5.2702    -3.6679    -5.6450 H       
  49 H49            2.9901    -4.4146    -5.1071 H       
  50 H50            1.8992    -3.6706    -3.0318 H       
  51 H51            7.3386    -0.7514    -2.9813 H       
  52 H52           -0.3228     6.2677    -0.1463 H       
  53 H53           -2.6101     5.0919    -3.5385 H       
  54 H54           -2.0150     8.2091    -4.5038 H       
  55 H55           -3.6090     7.5221    -4.1096 H       
  56 H56           -2.9792     8.9014    -3.1774 H       
@<TRIPOS>BOND
   1    1    2 1
   2    1    3 1
   3    1    7 2
   4    2    4 am
   5    2   11 2
   6    3    6 1
   7    3   10 am
   8    4    5 1
   9    4   13 1
  10    5    6 1
  11    5   37 1
  12    5   38 1
  13    6   39 1
  14    6   40 1
  15    7    8 1
  16    7   41 1
  17    8    9 2
  18    8   42 1
  19    9   10 1
  20    9   35 1
  21   10   12 2
  22   13   14 1
  23   13   43 1
  24   13   44 1
  25   14   15 1
  26   14   45 1
  27   14   46 1
  28   15   16 1
  29   16   17 ar
  30   16   21 ar
  31   17   18 ar
  32   17   25 1
  33   18   19 ar
  34   18   47 1
  35   19   20 ar
  36   19   48 1
  37   20   21 ar
  38   20   49 1
  39   21   50 1
  40   22   23 1
  41   22   26 1
  42   23   24 2
  43   23   27 1
  44   24   25 1
  45   25   26 2
  46   26   51 1
  47   27   28 1
  48   27   29 1
  49   27   30 1
  50   31   32 2
  51   31   35 1
  52   31   52 1
  53   32   33 1
  54   33   34 2
  55   33   36 1
  56   34   35 1
  57   34   53 1
  58   36   54 1
  59   36   55 1
  60   36   56 1

#	End of record

