#	Name: ASD09740310
#	Creating user name:	WinNT
#	Creation time:	15. 06. 2019 21:23

#	Modifying user name:	WinNT
#	Modification time:	15. 06. 2019 21:23

#	Program:	/corina/corina34_cracker 3.40 0067  02.08.2006

@<TRIPOS>MOLECULE
ASD09740310
  50   53    0    0    0
SMALL
NO_CHARGES


@<TRIPOS>ATOM
   1 O1            -0.0144     1.2085     0.0087 O.3     
   2 N2             0.0021    -0.0041     0.0020 N.2     
   3 C3             1.2413     1.6829    -0.0008 C.2     
   4 N4             2.0460     0.6361    -0.0141 N.2     
   5 C5             1.2349    -0.4424    -0.0121 C.2     
   6 C6             1.6624    -1.8635    -0.0238 C.ar    
   7 C7             1.6454     3.1034     0.0023 C.ar    
   8 C8             2.9988     3.4458    -0.0092 C.ar    
   9 C9             3.3746     4.7726    -0.0063 C.ar    
  10 C10            2.4101     5.7698     0.0080 C.ar    
  11 C11            1.0571     5.4349     0.0200 C.ar    
  12 C12            0.6740     4.1075     0.0109 C.ar    
  13 C13            0.7067    -2.8786    -0.0201 C.ar    
  14 C14            1.1028    -4.1980    -0.0310 C.ar    
  15 C15            2.4609    -4.5183    -0.0462 C.ar    
  16 C16            3.4168    -3.5018    -0.0503 C.ar    
  17 C17            3.0193    -2.1828    -0.0443 C.ar    
  18 C18            2.8873    -5.9360    -0.0574 C.2     
  19 O19            2.7853     7.0756     0.0108 O.3     
  20 C20            4.1881     7.3476    -0.0015 C.3     
  21 C21            4.4143     8.8608     0.0038 C.3     
  22 O22            0.1141     6.4147     0.0350 O.3     
  23 C23           -1.2531     5.9992     0.0467 C.3     
  24 C24           -2.1604     7.2311     0.0626 C.3     
  25 N25            2.0505    -6.9206    -0.0543 N.2     
  26 C26            2.7739    -8.1994    -0.0682 C.3     
  27 C27            4.2598    -7.7889    -0.0807 C.3     
  28 N28            4.2042    -6.3174    -0.0778 N.pl3   
  29 H29            3.7516     2.6714    -0.0200 H       
  30 H30            4.4219     5.0360    -0.0149 H       
  31 H31           -0.3740     3.8466     0.0198 H       
  32 H32           -0.3443    -2.6305    -0.0084 H       
  33 H33            0.3624    -4.9842    -0.0275 H       
  34 H34            4.4681    -3.7491    -0.0620 H       
  35 H35            3.7591    -1.3960    -0.0479 H       
  36 H36            4.6512     6.9080     0.8818 H       
  37 H37            4.6339     6.9168    -0.8980 H       
  38 H38            5.4843     9.0683    -0.0056 H       
  39 H39            3.9511     9.3005    -0.8796 H       
  40 H40            3.9685     9.2917     0.9003 H       
  41 H41           -1.4604     5.4068    -0.8445 H       
  42 H42           -1.4423     5.3971     0.9354 H       
  43 H43           -1.9531     7.8235     0.9538 H       
  44 H44           -1.9712     7.8332    -0.8261 H       
  45 H45           -3.2033     6.9141     0.0716 H       
  46 H46            2.5449    -8.7775     0.8271 H       
  47 H47            2.5272    -8.7681    -0.9647 H       
  48 H48            4.7687    -8.1595     0.8091 H       
  49 H49            4.7509    -8.1500    -0.9843 H       
  50 H50            4.9685    -5.7201    -0.0836 H       
@<TRIPOS>BOND
   1    1    2 1
   2    1    3 1
   3    2    5 2
   4    3    4 2
   5    3    7 1
   6    4    5 1
   7    5    6 1
   8    6   13 ar
   9    6   17 ar
  10    7    8 ar
  11    7   12 ar
  12    8    9 ar
  13    8   29 1
  14    9   10 ar
  15    9   30 1
  16   10   11 ar
  17   10   19 1
  18   11   12 ar
  19   11   22 1
  20   12   31 1
  21   13   14 ar
  22   13   32 1
  23   14   15 ar
  24   14   33 1
  25   15   16 ar
  26   15   18 1
  27   16   17 ar
  28   16   34 1
  29   17   35 1
  30   18   25 2
  31   18   28 1
  32   19   20 1
  33   20   21 1
  34   20   36 1
  35   20   37 1
  36   21   38 1
  37   21   39 1
  38   21   40 1
  39   22   23 1
  40   23   24 1
  41   23   41 1
  42   23   42 1
  43   24   43 1
  44   24   44 1
  45   24   45 1
  46   25   26 1
  47   26   27 1
  48   26   46 1
  49   26   47 1
  50   27   28 1
  51   27   48 1
  52   27   49 1
  53   28   50 1

#	End of record

