#	Name: ASD03570025
#	Creating user name:	WinNT
#	Creation time:	15. 06. 2019 20:43

#	Modifying user name:	WinNT
#	Modification time:	15. 06. 2019 20:43

#	Program:	/corina/corina34_cracker 3.40 0067  02.08.2006

@<TRIPOS>MOLECULE
ASD03570025
  38   40    0    0    0
SMALL
NO_CHARGES


@<TRIPOS>ATOM
   1 C1            -0.0169     1.3960     0.0097 C.ar    
   2 C2             0.0021    -0.0041     0.0020 C.ar    
   3 C3             1.2114    -0.6902    -0.0133 C.ar    
   4 C4             2.4071     0.0214    -0.0209 C.ar    
   5 C5             2.3775     1.4303    -0.0131 C.ar    
   6 C6             1.1465     2.1033     0.0024 C.ar    
   7 N7             3.7289    -0.3625    -0.0361 N.pl3   
   8 C8             4.5200     0.7704    -0.0379 C.2     
   9 C9             3.7215     1.8715    -0.0240 C.2     
  10 C10            4.1856     3.3052    -0.0214 C.3     
  11 C11            4.3286     3.7976    -1.4629 C.3     
  12 C12           -1.2740    -0.7589     0.0107 C.ar    
  13 F13            1.2254    -2.0411    -0.0202 F       
  14 C14           -2.2612    -0.4526     0.9462 C.ar    
  15 C15           -3.4470    -1.1577     0.9505 C.ar    
  16 C16           -3.6575    -2.1690     0.0269 C.ar    
  17 C17           -2.6790    -2.4773    -0.9044 C.ar    
  18 C18           -1.4926    -1.7734    -0.9203 C.ar    
  19 F19           -4.8202    -2.8569     0.0349 F       
  20 C20            5.9884     0.7836    -0.0528 C.2     
  21 O21            6.5868     1.8419    -0.0526 O.2     
  22 O22            6.6730    -0.3782    -0.0668 O.3     
  23 C23            4.7927     5.2313    -1.4603 C.2     
  24 O24            4.9891     5.8009    -0.4130 O.2     
  25 O25            4.9880     5.8757    -2.6215 O.3     
  26 H26           -0.9618     1.9190     0.0170 H       
  27 H27            1.1217     3.1830     0.0084 H       
  28 H28            4.0517    -1.2772    -0.0439 H       
  29 H29            3.4559     3.9224     0.5027 H       
  30 H30            5.1493     3.3742     0.4833 H       
  31 H31            5.0583     3.1804    -1.9871 H       
  32 H32            3.3649     3.7286    -1.9677 H       
  33 H33           -2.0979     0.3352     1.6666 H       
  34 H34           -4.2122    -0.9214     1.6750 H       
  35 H35           -2.8471    -3.2668    -1.6219 H       
  36 H36           -0.7306    -2.0141    -1.6468 H       
  37 H37            7.6381    -0.3189    -0.0763 H       
  38 H38            5.2860     6.7942    -2.5693 H       
@<TRIPOS>BOND
   1    1    2 ar
   2    1    6 ar
   3    1   26 1
   4    2    3 ar
   5    2   12 1
   6    3    4 ar
   7    3   13 1
   8    4    5 ar
   9    4    7 1
  10    5    6 ar
  11    5    9 1
  12    6   27 1
  13    7    8 1
  14    7   28 1
  15    8    9 2
  16    8   20 1
  17    9   10 1
  18   10   11 1
  19   10   29 1
  20   10   30 1
  21   11   23 1
  22   11   31 1
  23   11   32 1
  24   12   14 ar
  25   12   18 ar
  26   14   15 ar
  27   14   33 1
  28   15   16 ar
  29   15   34 1
  30   16   17 ar
  31   16   19 1
  32   17   18 ar
  33   17   35 1
  34   18   36 1
  35   20   21 2
  36   20   22 1
  37   22   37 1
  38   23   24 2
  39   23   25 1
  40   25   38 1

#	End of record

