#	Name: ASD06660033
#	Creating user name:	WinNT
#	Creation time:	15. 06. 2019 21:07

#	Modifying user name:	WinNT
#	Modification time:	15. 06. 2019 21:07

#	Program:	/corina/corina34_cracker 3.40 0067  02.08.2006

@<TRIPOS>MOLECULE
ASD06660033
  74   77    0    0    0
SMALL
NO_CHARGES


@<TRIPOS>ATOM
   1 C1             0.2627     1.9373     1.0525 C.2     
   2 C2             0.0327     0.5417     0.5326 C.3     
   3 C3            -1.1007     0.5607    -0.4951 C.3     
   4 O4             1.3397     2.4657     0.9087 O.2     
   5 O5            -0.7306     2.5955     1.6705 O.3     
   6 C6            -1.4197    -0.8504    -0.9172 C.ar    
   7 C7            -2.3422    -1.5924    -0.2026 C.ar    
   8 C8            -2.6369    -2.8858    -0.5867 C.ar    
   9 C9            -2.0054    -3.4412    -1.6923 C.ar    
  10 C10           -1.0792    -2.6931    -2.4079 C.ar    
  11 C11           -0.7934    -1.3983    -2.0217 C.ar    
  12 N12           -2.3007    -4.7492    -2.0833 N.3     
  13 C13           -1.5239    -5.1321    -3.2692 C.3     
  14 C14           -1.9771    -6.5110    -3.7542 C.3     
  15 C15           -1.7707    -7.5340    -2.6337 C.3     
  16 C16           -2.5513    -7.0867    -1.3947 C.3     
  17 C17           -2.0815    -5.6910    -0.9781 C.3     
  18 C18           -2.2784    -8.9029    -3.0912 C.3     
  19 N19           -1.9726    -9.9045    -2.0667 N.pl3   
  20 C20           -2.3400   -11.2310    -2.2601 C.ar    
  21 C21           -2.9980   -11.6008    -3.4290 C.ar    
  22 C22           -3.3578   -12.9241    -3.6084 C.ar    
  23 C23           -3.0464   -13.8370    -2.6091 C.ar    
  24 C24           -2.3920   -13.4007    -1.4748 C.ar    
  25 N25           -2.0560   -12.1324    -1.3329 N.ar    
  26 C26            2.2801    -0.3909     0.6599 C.2     
  27 C27            3.5507    -0.8035     0.0249 C.ar    
  28 C28            3.7937    -2.1533    -0.2380 C.ar    
  29 C29            4.9765    -2.5377    -0.8291 C.ar    
  30 C30            5.9334    -1.5772    -1.1659 C.ar    
  31 C31            5.6901    -0.2274    -0.9030 C.ar    
  32 C32            4.5043     0.1571    -0.3168 C.ar    
  33 O33            2.1578    -0.4481     1.8678 O.2     
  34 N34            1.2581     0.0484    -0.1009 N.am    
  35 C35            4.2389     1.6144    -0.0390 C.3     
  36 C36            2.7617    -3.1894     0.1259 C.3     
  37 C37            1.7526    -3.3270    -1.0159 C.3     
  38 C38            7.1636    -1.9767    -1.7803 C.1     
  39 N39            8.1396    -2.2936    -2.2677 N.1     
  40 H40           -0.2381    -0.1143     1.3599 H       
  41 H41           -1.9860     1.0161    -0.0513 H       
  42 H42           -0.7920     1.1394    -1.3657 H       
  43 H43           -0.5355     3.4882     1.9869 H       
  44 H44           -2.8326    -1.1600     0.6571 H       
  45 H45           -3.3572    -3.4648    -0.0280 H       
  46 H46           -0.5864    -3.1220    -3.2679 H       
  47 H47           -0.0769    -0.8145    -2.5804 H       
  48 H48           -1.6829    -4.3987    -4.0598 H       
  49 H49           -0.4648    -5.1669    -3.0139 H       
  50 H50           -3.0329    -6.4735    -4.0227 H       
  51 H51           -1.3896    -6.8017    -4.6251 H       
  52 H52           -0.7100    -7.6001    -2.3917 H       
  53 H53           -3.6161    -7.0582    -1.6261 H       
  54 H54           -2.3741    -7.7886    -0.5799 H       
  55 H55           -1.0197    -5.7232    -0.7336 H       
  56 H56           -2.6454    -5.3637    -0.1047 H       
  57 H57           -3.3565    -8.8578    -3.2448 H       
  58 H58           -1.7894    -9.1780    -4.0257 H       
  59 H59           -1.5137    -9.6420    -1.2535 H       
  60 H60           -3.2250   -10.8645    -4.1858 H       
  61 H61           -3.8697   -13.2404    -4.5052 H       
  62 H62           -3.3138   -14.8776    -2.7183 H       
  63 H63           -2.1480   -14.1072    -0.6953 H       
  64 H64            5.1646    -3.5816    -1.0321 H       
  65 H65            6.4298     0.5153    -1.1629 H       
  66 H66            1.3338     0.0380    -1.0679 H       
  67 H67            4.6062     1.8674     0.9555 H       
  68 H68            4.7517     2.2251    -0.7821 H       
  69 H69            3.1668     1.8045    -0.0897 H       
  70 H70            3.2527    -4.1479     0.2942 H       
  71 H71            2.2430    -2.8824     1.0341 H       
  72 H72            1.3338    -2.3484    -1.2506 H       
  73 H73            2.2532    -3.7287    -1.8969 H       
  74 H74            0.9518    -4.0019    -0.7138 H       
@<TRIPOS>BOND
   1    1    2 1
   2    1    4 2
   3    1    5 1
   4    2    3 1
   5    2   34 1
   6    2   40 1
   7    3    6 1
   8    3   41 1
   9    3   42 1
  10    5   43 1
  11    6    7 ar
  12    6   11 ar
  13    7    8 ar
  14    7   44 1
  15    8    9 ar
  16    8   45 1
  17    9   10 ar
  18    9   12 1
  19   10   11 ar
  20   10   46 1
  21   11   47 1
  22   12   13 1
  23   12   17 1
  24   13   14 1
  25   13   48 1
  26   13   49 1
  27   14   15 1
  28   14   50 1
  29   14   51 1
  30   15   16 1
  31   15   18 1
  32   15   52 1
  33   16   17 1
  34   16   53 1
  35   16   54 1
  36   17   55 1
  37   17   56 1
  38   18   19 1
  39   18   57 1
  40   18   58 1
  41   19   20 1
  42   19   59 1
  43   20   21 ar
  44   20   25 ar
  45   21   22 ar
  46   21   60 1
  47   22   23 ar
  48   22   61 1
  49   23   24 ar
  50   23   62 1
  51   24   25 ar
  52   24   63 1
  53   26   27 1
  54   26   33 2
  55   26   34 am
  56   27   28 ar
  57   27   32 ar
  58   28   29 ar
  59   28   36 1
  60   29   30 ar
  61   29   64 1
  62   30   31 ar
  63   30   38 1
  64   31   32 ar
  65   31   65 1
  66   32   35 1
  67   34   66 1
  68   35   67 1
  69   35   68 1
  70   35   69 1
  71   36   37 1
  72   36   70 1
  73   36   71 1
  74   37   72 1
  75   37   73 1
  76   37   74 1
  77   38   39 3

#	End of record

