#	Name: ASD02401026
#	Creating user name:	WinNT
#	Creation time:	15. 06. 2019 20:20

#	Modifying user name:	WinNT
#	Modification time:	15. 06. 2019 20:20

#	Program:	/corina/corina34_cracker 3.40 0067  02.08.2006

@<TRIPOS>MOLECULE
ASD02401026
  34   35    0    0    0
SMALL
NO_CHARGES


@<TRIPOS>ATOM
   1 C1            -0.0167     1.3804     0.0096 C.ar    
   2 C2             0.0021    -0.0041     0.0020 C.ar    
   3 C3             1.2201    -0.6810    -0.0132 C.ar    
   4 C4             2.4074     0.0358    -0.0207 C.ar    
   5 C5             2.3800     1.4181    -0.0130 C.ar    
   6 C6             1.1715     2.0887     0.0021 C.ar    
   7 O7            -1.1655    -0.7017     0.0098 O.3     
   8 C8             3.6709     2.1956    -0.0211 C.3     
   9 C9             4.0940     2.4665    -1.4663 C.3     
  10 C10            5.3850     3.2440    -1.4744 C.ar    
  11 C11            6.5934     2.5734    -1.4895 C.ar    
  12 C12            7.7816     3.2817    -1.4971 C.ar    
  13 C13            7.7628     4.6662    -1.4899 C.ar    
  14 C14            6.5448     5.3431    -1.4751 C.ar    
  15 C15            5.3575     4.6263    -1.4725 C.ar    
  16 O16            8.9304     5.3638    -1.4968 O.3     
  17 N17            1.2452    -2.0803    -0.0205 N.pl3   
  18 N18            6.5197     6.7424    -1.4678 N.pl3   
  19 H19           -0.9593     1.9075     0.0169 H       
  20 H20            3.3531    -0.4857    -0.0321 H       
  21 H21            1.1548     3.1685     0.0084 H       
  22 H22           -1.5118    -0.8987    -0.8712 H       
  23 H23            3.5279     3.1427     0.4992 H       
  24 H24            4.4461     1.6179     0.4822 H       
  25 H25            4.2370     1.5194    -1.9866 H       
  26 H26            3.3188     3.0442    -1.9697 H       
  27 H27            6.6101     1.4936    -1.4951 H       
  28 H28            8.7242     2.7546    -1.5082 H       
  29 H29            4.4118     5.1478    -1.4611 H       
  30 H30            9.2601     5.5700    -2.3822 H       
  31 H31            0.4140    -2.5803    -0.0150 H       
  32 H32            2.0938    -2.5502    -0.0311 H       
  33 H33            7.3509     7.2424    -1.4731 H       
  34 H34            5.6712     7.2123    -1.4576 H       
@<TRIPOS>BOND
   1    1    2 ar
   2    1    6 ar
   3    1   19 1
   4    2    3 ar
   5    2    7 1
   6    3    4 ar
   7    3   17 1
   8    4    5 ar
   9    4   20 1
  10    5    6 ar
  11    5    8 1
  12    6   21 1
  13    7   22 1
  14    8    9 1
  15    8   23 1
  16    8   24 1
  17    9   10 1
  18    9   25 1
  19    9   26 1
  20   10   11 ar
  21   10   15 ar
  22   11   12 ar
  23   11   27 1
  24   12   13 ar
  25   12   28 1
  26   13   14 ar
  27   13   16 1
  28   14   15 ar
  29   14   18 1
  30   15   29 1
  31   16   30 1
  32   17   31 1
  33   17   32 1
  34   18   33 1
  35   18   34 1

#	End of record

