#	Name: ASD01900634
#	Creating user name:	WinNT
#	Creation time:	15. 06. 2019 19:52

#	Modifying user name:	WinNT
#	Modification time:	15. 06. 2019 19:52

#	Program:	/corina/corina34_cracker 3.40 0067  02.08.2006

@<TRIPOS>MOLECULE
ASD01900634
  37   40    0    0    0
SMALL
NO_CHARGES


@<TRIPOS>ATOM
   1 C1            -0.0167     1.3807     0.0096 C.ar    
   2 C2             0.0021    -0.0041     0.0020 C.ar    
   3 C3             1.1985    -0.6925    -0.0152 C.ar    
   4 C4             2.3999     0.0036    -0.0252 C.ar    
   5 C5             2.3760     1.4050    -0.0131 C.ar    
   6 O6             3.5769    -0.6572    -0.0538 O.3     
   7 C7             4.7391    -0.0447     0.2307 C.2     
   8 C8             4.8691     1.3025     0.2636 C.2     
   9 C9             3.6750     2.1246    -0.0105 C.2     
  10 N10            3.7559     3.4130    -0.2379 N.2     
  11 C11            5.9242    -0.8765     0.5202 C.ar    
  12 N12            7.0866    -0.2823     0.8048 N.ar    
  13 C13            8.1777    -0.9557     1.0712 C.ar    
  14 C14            8.1615    -2.3616     1.0661 C.ar    
  15 C15            6.9453    -3.0321     0.7683 C.ar    
  16 C16            5.8061    -2.2574     0.4964 C.ar    
  17 C17            9.3105    -3.1165     1.3457 C.ar    
  18 C18            9.2422    -4.4770     1.3274 C.ar    
  19 C19            8.0487    -5.1342     1.0348 C.ar    
  20 C20            6.9125    -4.4351     0.7587 C.ar    
  21 O21            5.0172     4.0564    -0.2249 O.3     
  22 C22            1.1683     2.0900     0.0021 C.ar    
  23 C23            8.0142    -6.6407     1.0242 C.3     
  24 H24           -0.9598     1.9069     0.0169 H       
  25 H25           -0.9291    -0.5511     0.0100 H       
  26 H26            1.2000    -1.7725    -0.0204 H       
  27 H27            5.8207     1.7628     0.4846 H       
  28 H28            9.0935    -0.4291     1.2955 H       
  29 H29            4.8612    -2.7269     0.2657 H       
  30 H30           10.2434    -2.6222     1.5736 H       
  31 H31           10.1280    -5.0560     1.5429 H       
  32 H32            5.9938    -4.9564     0.5338 H       
  33 H33            4.9762     5.0059    -0.4029 H       
  34 H34            1.1557     3.1699     0.0077 H       
  35 H35            7.7620    -7.0054     2.0199 H       
  36 H36            7.2635    -6.9819     0.3113 H       
  37 H37            8.9921    -7.0245     0.7336 H       
@<TRIPOS>BOND
   1    1    2 ar
   2    1   22 ar
   3    1   24 1
   4    2    3 ar
   5    2   25 1
   6    3    4 ar
   7    3   26 1
   8    4    5 ar
   9    4    6 1
  10    5   22 ar
  11    5    9 1
  12    6    7 1
  13    7    8 2
  14    7   11 1
  15    8    9 1
  16    8   27 1
  17    9   10 2
  18   10   21 1
  19   11   12 ar
  20   11   16 ar
  21   12   13 ar
  22   13   14 ar
  23   13   28 1
  24   14   15 ar
  25   14   17 ar
  26   15   16 ar
  27   15   20 ar
  28   16   29 1
  29   17   18 ar
  30   17   30 1
  31   18   19 ar
  32   18   31 1
  33   19   20 ar
  34   19   23 1
  35   20   32 1
  36   21   33 1
  37   22   34 1
  38   23   35 1
  39   23   36 1
  40   23   37 1

#	End of record

