#	Name: ASD03091698
#	Creating user name:	WinNT
#	Creation time:	15. 06. 2019 20:31

#	Modifying user name:	WinNT
#	Modification time:	15. 06. 2019 20:31

#	Program:	/corina/corina34_cracker 3.40 0067  02.08.2006

@<TRIPOS>MOLECULE
ASD03091698
  48   49    0    0    0
SMALL
NO_CHARGES


@<TRIPOS>ATOM
   1 Cl1            0.0000     0.0000     0.0000 Cl      
   2 H2             0.0000     1.3700     0.0000 H       
   3 Cl3            5.0000     6.3700     5.0000 Cl      
   4 H4             5.0000     7.7400     5.0000 H       
   5 C5            19.5228    18.7948    11.5706 C.ar    
   6 C6            19.5417    17.3957    11.5629 C.ar    
   7 C7            20.7747    16.7101    11.5479 C.ar    
   8 C8            21.9654    17.4230    11.5408 C.ar    
   9 C9            21.9443    18.8090    11.5484 C.ar    
  10 C10           20.7556    19.4913    11.5626 C.ar    
  11 S11           17.8918    16.7834    11.5753 S.3     
  12 C12           17.2352    18.4107    11.5903 C.2     
  13 C13           18.2185    19.3161    11.5915 C.2     
  14 C14           15.8012    18.7336    11.6058 C.2     
  15 O15           15.4394    19.8950    11.6150 O.2     
  16 N16           14.8874    17.7430    11.6097 N.am    
  17 N17           11.9511    17.3206    13.4056 N.3     
  18 C18           12.9992    18.2931    13.0681 C.3     
  19 C19           13.4583    18.0648    11.6250 C.3     
  20 C20           12.6618    16.8961    11.0312 C.3     
  21 C21           11.1688    17.2435    11.0866 C.3     
  22 C22           10.7730    17.4939    12.5445 C.3     
  23 C23           12.4621    15.9451    13.3270 C.3     
  24 C24           12.9066    15.6501    11.8917 C.3     
  25 C25           20.7983    15.2320    11.5402 C.2     
  26 N26           19.6816    14.5632    11.5473 N.2     
  27 N27           22.0086    14.5588    11.5255 N.pl3   
  28 O28           19.7042    13.1474    11.5400 O.3     
  29 H29           22.9090    16.8976    11.5296 H       
  30 H30           22.8747    19.3573    11.5428 H       
  31 H31           20.7594    20.5712    11.5683 H       
  32 H32           18.0231    20.3782    11.6002 H       
  33 H33           15.1760    16.8169    11.6023 H       
  34 H34           12.6033    19.3037    13.1681 H       
  35 H35           13.8451    18.1651    13.7434 H       
  36 H36           13.2783    18.9652    11.0377 H       
  37 H37           12.9676    16.7198    10.0000 H       
  38 H38           10.9805    18.1412    10.4978 H       
  39 H39           10.5857    16.4136    10.6873 H       
  40 H40           10.0000    16.7839    12.8386 H       
  41 H41           10.3927    18.5100    12.6488 H       
  42 H42           13.3115    15.8337    14.0009 H       
  43 H43           11.6752    15.2478    13.6147 H       
  44 H44           12.3305    14.8138    11.4956 H       
  45 H45           13.9679    15.4021    11.8817 H       
  46 H46           22.8408    15.0572    11.5202 H       
  47 H47           22.0241    13.5890    11.5204 H       
  48 H48           18.8272    12.7400    11.5461 H       
@<TRIPOS>BOND
   1    1    2 1
   2    3    4 1
   3    5    6 ar
   4    5   10 ar
   5    5   13 1
   6    6    7 ar
   7    6   11 1
   8    7    8 ar
   9    7   25 1
  10    8    9 ar
  11    8   29 1
  12    9   10 ar
  13    9   30 1
  14   10   31 1
  15   11   12 1
  16   12   13 2
  17   12   14 1
  18   13   32 1
  19   14   15 2
  20   14   16 am
  21   16   19 1
  22   16   33 1
  23   17   18 1
  24   17   22 1
  25   17   23 1
  26   18   19 1
  27   18   34 1
  28   18   35 1
  29   19   20 1
  30   19   36 1
  31   20   21 1
  32   20   24 1
  33   20   37 1
  34   21   22 1
  35   21   38 1
  36   21   39 1
  37   22   40 1
  38   22   41 1
  39   23   24 1
  40   23   42 1
  41   23   43 1
  42   24   44 1
  43   24   45 1
  44   25   26 2
  45   25   27 1
  46   26   28 1
  47   27   46 1
  48   27   47 1
  49   28   48 1

#	End of record

