#	Name: ASD01881668
#	Creating user name:	WinNT
#	Creation time:	15. 06. 2019 19:43

#	Modifying user name:	WinNT
#	Modification time:	15. 06. 2019 19:43

#	Program:	/corina/corina34_cracker 3.40 0067  02.08.2006

@<TRIPOS>MOLECULE
ASD01881668
  29   31    0    0    0
SMALL
NO_CHARGES


@<TRIPOS>ATOM
   1 C1             0.0021    -0.0041     0.0020 C.1     
   2 C2            -0.0179     1.4678     0.0101 C.3     
   3 N3             0.0175    -1.1399    -0.0042 N.1     
   4 O4             1.3227     1.9624    -0.0000 O.3     
   5 N5             2.2408     7.3625     0.0197 N.pl3   
   6 N6             3.6411     7.2812     0.0065 N.2     
   7 N7             3.9981     6.0455    -0.0030 N.2     
   8 C8             2.9139     5.2444     0.0028 C.ar    
   9 C9             1.7746     6.0676     0.0174 C.ar    
  10 C10            2.7524     3.8521    -0.0035 C.ar    
  11 C11            1.4826     3.3128     0.0057 C.ar    
  12 C12            0.3632     4.1414     0.0204 C.ar    
  13 C13            0.5052     5.5005     0.0253 C.ar    
  14 C14            1.4336     8.5849     0.0386 C.3     
  15 C15            1.1393     9.0241    -1.3971 C.3     
  16 C16            0.2066    10.2210    -1.5927 C.3     
  17 C17            1.7067    10.3693    -1.8547 C.3     
  18 Br18           4.2664     2.7193    -0.0237 Br      
  19 H19           -0.5451     1.8289    -0.8729 H       
  20 H20           -0.5281     1.8193     0.9069 H       
  21 H21           -0.6252     3.7062     0.0271 H       
  22 H22           -0.3690     6.1345     0.0365 H       
  23 H23            0.4954     8.3928     0.5593 H       
  24 H24            1.9808     9.3737     0.5549 H       
  25 H25            1.0897     8.2218    -2.1333 H       
  26 H26           -0.4564    10.2064    -2.4577 H       
  27 H27           -0.1974    10.6956    -0.6984 H       
  28 H28            2.2896    10.9414    -1.1329 H       
  29 H29            2.0306    10.4522    -2.8922 H       
@<TRIPOS>BOND
   1    1    2 1
   2    1    3 3
   3    2    4 1
   4    2   19 1
   5    2   20 1
   6    4   11 1
   7    5    6 1
   8    5    9 1
   9    5   14 1
  10    6    7 2
  11    7    8 1
  12    8    9 ar
  13    8   10 ar
  14    9   13 ar
  15   10   11 ar
  16   10   18 1
  17   11   12 ar
  18   12   13 ar
  19   12   21 1
  20   13   22 1
  21   14   15 1
  22   14   23 1
  23   14   24 1
  24   15   16 1
  25   15   17 1
  26   15   25 1
  27   16   17 1
  28   16   26 1
  29   16   27 1
  30   17   28 1
  31   17   29 1

#	End of record

