#	Name: ASD03091899
#	Creating user name:	WinNT
#	Creation time:	15. 06. 2019 20:31

#	Modifying user name:	WinNT
#	Modification time:	15. 06. 2019 20:31

#	Program:	/corina/corina34_cracker 3.40 0067  02.08.2006

@<TRIPOS>MOLECULE
ASD03091899
  55   59    0    0    0
SMALL
NO_CHARGES


@<TRIPOS>ATOM
   1 C1            -0.0681     1.3858    -0.1034 C.ar    
   2 C2            -1.3179     1.9737    -0.0445 C.ar    
   3 C3            -2.4548     1.1747    -0.0268 C.ar    
   4 C4            -2.3436    -0.2116    -0.0682 C.ar    
   5 C5            -1.1029    -0.8083    -0.1266 C.ar    
   6 C6             0.0419    -0.0147    -0.1448 C.ar    
   7 O7             1.0666     2.1284    -0.1170 O.3     
   8 C8             2.2156     1.5769     0.5263 C.3     
   9 N9             2.4427     0.1969     0.0963 N.am    
  10 C10            1.3931    -0.6039    -0.2013 C.2     
  11 C11           -3.5858    -1.0646    -0.0487 C.3     
  12 C12           -4.0179    -1.2900     1.3774 C.ar    
  13 C13           -3.4572    -2.3146     2.1264 C.ar    
  14 C14           -4.9725    -0.4751     1.9547 C.ar    
  15 N15           -5.3571    -0.6632     3.2021 N.ar    
  16 C16           -4.8495    -1.6323     3.9465 C.ar    
  17 C17           -3.8824    -2.4866     3.4327 C.ar    
  18 O18            1.5583    -1.7700    -0.5047 O.2     
  19 C19            3.8095    -0.3191    -0.0123 C.3     
  20 C20            4.5891     0.4710    -1.0837 C.3     
  21 C21            4.5577    -0.1138     1.3165 C.3     
  22 C22            5.7658     0.7940     1.0063 C.3     
  23 C23            5.3506     1.5530    -0.2784 C.3     
  24 O24            5.0079    -1.3714     1.8242 O.3     
  25 O25           -3.6828     1.7509     0.0317 O.3     
  26 N26           -5.2869    -1.7943     5.2648 N.pl3   
  27 C27           -4.8581    -2.7333     6.1489 C.2     
  28 N28           -5.4970    -2.5664     7.2744 N.2     
  29 C29           -6.3441    -1.5329     7.1561 C.2     
  30 C30           -6.2257    -1.0320     5.9122 C.2     
  31 F31           -1.4335     3.3191    -0.0037 F       
  32 C32           -4.2653     2.1637    -1.2062 C.3     
  33 H33           -1.0185    -1.8846    -0.1580 H       
  34 H34            3.0895     2.1785     0.2763 H       
  35 H35            2.0655     1.5958     1.6058 H       
  36 H36           -4.3825    -0.5587    -0.5941 H       
  37 H37           -3.3750    -2.0243    -0.5205 H       
  38 H38           -2.7064    -2.9634     1.6999 H       
  39 H39           -5.4091     0.3264     1.3773 H       
  40 H40           -3.4671    -3.2740     4.0442 H       
  41 H41            3.7891    -1.3781    -0.2695 H       
  42 H42            5.2903    -0.1814    -1.6039 H       
  43 H43            3.9017     0.9351    -1.7909 H       
  44 H44            3.9038     0.3699     2.0422 H       
  45 H45            5.9371     1.4938     1.8243 H       
  46 H46            6.6570     0.1937     0.8236 H       
  47 H47            6.2289     1.8952    -0.8258 H       
  48 H48            4.6940     2.3892    -0.0380 H       
  49 H49            5.4875    -1.3085     2.6615 H       
  50 H50           -4.1138    -3.4909     5.9527 H       
  51 H51           -7.0037    -1.1635     7.9274 H       
  52 H52           -6.7678    -0.1928     5.5019 H       
  53 H53           -4.4597     1.2884    -1.8260 H       
  54 H54           -5.2020     2.6857    -1.0108 H       
  55 H55           -3.5786     2.8318    -1.7260 H       
@<TRIPOS>BOND
   1    1    6 ar
   2    1    7 1
   3    1    2 ar
   4    2    3 ar
   5    2   31 1
   6    3    4 ar
   7    3   25 1
   8    4    5 ar
   9    4   11 1
  10    5    6 ar
  11    5   33 1
  12    6   10 1
  13    7    8 1
  14    8    9 1
  15    8   34 1
  16    8   35 1
  17    9   10 am
  18    9   19 1
  19   10   18 2
  20   11   12 1
  21   11   36 1
  22   11   37 1
  23   12   14 ar
  24   12   13 ar
  25   13   17 ar
  26   13   38 1
  27   14   15 ar
  28   14   39 1
  29   15   16 ar
  30   16   17 ar
  31   16   26 1
  32   17   40 1
  33   19   21 1
  34   19   20 1
  35   19   41 1
  36   20   23 1
  37   20   42 1
  38   20   43 1
  39   21   22 1
  40   21   24 1
  41   21   44 1
  42   22   23 1
  43   22   45 1
  44   22   46 1
  45   23   47 1
  46   23   48 1
  47   24   49 1
  48   25   32 1
  49   26   30 1
  50   26   27 1
  51   27   28 2
  52   27   50 1
  53   28   29 1
  54   29   30 2
  55   29   51 1
  56   30   52 1
  57   32   53 1
  58   32   54 1
  59   32   55 1

#	End of record

