#	Name: ASD01120363
#	Creating user name:	WinNT
#	Creation time:	15. 06. 2019 18:59

#	Modifying user name:	WinNT
#	Modification time:	15. 06. 2019 18:59

#	Program:	/corina/corina34_cracker 3.40 0067  02.08.2006

@<TRIPOS>MOLECULE
ASD01120363
  44   46    0    0    0
SMALL
NO_CHARGES


@<TRIPOS>ATOM
   1 C1            -0.0319     1.3613    -0.5231 C.ar    
   2 C2            -0.0092    -0.0220    -0.4417 C.ar    
   3 C3             1.1828    -0.7023    -0.3162 C.ar    
   4 C4             2.3862    -0.0043    -0.2692 C.ar    
   5 C5             2.3786     1.4013    -0.3507 C.ar    
   6 C6             1.1509     2.0851    -0.4791 C.ar    
   7 N7             3.6976    -0.4017    -0.1517 N.pl3   
   8 C8             4.5039     0.7205    -0.1582 C.2     
   9 C9             3.7228     1.8283    -0.2784 C.2     
  10 C10            4.2057     3.2550    -0.3262 C.3     
  11 C11            4.3275     3.7036    -1.7839 C.3     
  12 C12            4.8104     5.1304    -1.8317 C.2     
  13 O13            4.9919     5.7382    -3.0146 O.3     
  14 O14            5.0342     5.7271    -0.8052 O.2     
  15 C15            5.9685     0.7180    -0.0524 C.2     
  16 O16            6.5809     1.7681    -0.0683 O.2     
  17 O17            6.6342    -0.4492     0.0624 O.3     
  18 C18            1.1252     3.5637    -0.5662 C.ar    
  19 C19            0.6028     4.1889    -1.6982 C.ar    
  20 C20            0.5803     5.5668    -1.7765 C.ar    
  21 C21            1.0743     6.3304    -0.7355 C.ar    
  22 C22            1.5962     5.7163     0.3952 C.ar    
  23 C23            1.6179     4.3347     0.4855 C.ar    
  24 O24            2.0807     6.4715     1.4159 O.3     
  25 C25            2.0213     7.8905     1.2580 C.3     
  26 N26            1.1834    -2.1801    -0.2305 N.pl3   
  27 O27            0.1315    -2.7929    -0.2710 O.2     
  28 O28            2.2357    -2.7833    -0.1194 O.2     
  29 H29           -0.9746     1.8782    -0.6257 H       
  30 H30           -0.9371    -0.5736    -0.4768 H       
  31 H31            4.0056    -1.3184    -0.0761 H       
  32 H32            3.4944     3.8970     0.1933 H       
  33 H33            5.1797     3.3254     0.1582 H       
  34 H34            5.0389     3.0616    -2.3034 H       
  35 H35            3.3535     3.6333    -2.2682 H       
  36 H36            5.3028     6.6536    -2.9947 H       
  37 H37            7.5977    -0.4003     0.1291 H       
  38 H38            0.2164     3.5951    -2.5133 H       
  39 H39            0.1758     6.0497    -2.6538 H       
  40 H40            1.0546     7.4082    -0.8021 H       
  41 H41            2.0236     3.8558     1.3644 H       
  42 H42            2.5961     8.1826     0.3791 H       
  43 H43            0.9835     8.1991     1.1324 H       
  44 H44            2.4391     8.3723     2.1420 H       
@<TRIPOS>BOND
   1    1    2 ar
   2    1    6 ar
   3    1   29 1
   4    2    3 ar
   5    2   30 1
   6    3   26 1
   7    3    4 ar
   8    4    5 ar
   9    4    7 1
  10    5    6 ar
  11    5    9 1
  12    6   18 1
  13    7    8 1
  14    7   31 1
  15    8    9 2
  16    8   15 1
  17    9   10 1
  18   10   11 1
  19   10   32 1
  20   10   33 1
  21   11   12 1
  22   11   34 1
  23   11   35 1
  24   12   13 1
  25   12   14 2
  26   13   36 1
  27   15   16 2
  28   15   17 1
  29   17   37 1
  30   18   19 ar
  31   18   23 ar
  32   19   20 ar
  33   19   38 1
  34   20   21 ar
  35   20   39 1
  36   21   22 ar
  37   21   40 1
  38   22   23 ar
  39   22   24 1
  40   23   41 1
  41   24   25 1
  42   25   42 1
  43   25   43 1
  44   25   44 1
  45   26   27 2
  46   26   28 2

#	End of record

