#	Name: ASD08150642
#	Creating user name:	WinNT
#	Creation time:	15. 06. 2019 21:16

#	Modifying user name:	WinNT
#	Modification time:	15. 06. 2019 21:16

#	Program:	/corina/corina34_cracker 3.40 0067  02.08.2006

@<TRIPOS>MOLECULE
ASD08150642
  62   67    0    0    0
SMALL
NO_CHARGES


@<TRIPOS>ATOM
   1 N1             0.1177     1.7994    -0.9124 N.am    
   2 C2             0.3968     0.9188    -1.8930 C.2     
   3 C3             1.5293     0.0831    -1.8143 C.2     
   4 C4             2.3588     0.1559    -0.7424 C.2     
   5 C5             2.0684     1.0815     0.2908 C.ar    
   6 C6             2.8961     1.1977     1.4239 C.ar    
   7 N7             2.6260     2.0528     2.3754 N.ar    
   8 C8             1.5567     2.8620     2.3308 C.ar    
   9 C9             0.6687     2.8135     1.2280 C.ar    
  10 C10            0.9325     1.8986     0.1817 C.ar    
  11 C11           -0.4433     3.6603     1.1916 C.ar    
  12 C12           -0.6651     4.5405     2.2384 C.ar    
  13 C13            0.2183     4.5830     3.3262 C.ar    
  14 C14            1.3042     3.7658     3.3759 C.ar    
  15 O15           -0.3402     0.8434    -2.8613 O.2     
  16 C16           -1.8422     5.4422     2.2078 C.ar    
  17 C17           -1.0110     2.6226    -1.0167 C.ar    
  18 C18           -0.8697     3.9503    -1.3999 C.ar    
  19 C19           -1.9823     4.7607    -1.5029 C.ar    
  20 C20           -3.2418     4.2495    -1.2237 C.ar    
  21 C21           -3.3837     2.9237    -0.8405 C.ar    
  22 C22           -2.2722     2.1103    -0.7426 C.ar    
  23 O23           -4.3371     5.0482    -1.3254 O.3     
  24 C24           -2.9537     5.1272     1.4098 C.ar    
  25 N25           -4.0059     5.9042     1.3633 N.ar    
  26 C26           -4.0754     7.0355     2.0730 C.ar    
  27 C27           -2.9934     7.4223     2.9034 C.ar    
  28 C28           -1.8556     6.6001     2.9719 C.ar    
  29 C29           -4.1354     6.3623    -1.8493 C.3     
  30 C30           -5.2140     7.8576     2.0095 C.ar    
  31 C31           -5.4148     7.1505    -1.7352 C.2     
  32 O32           -6.3745     6.6703    -1.1701 O.2     
  33 N33           -5.4925     8.3889    -2.2612 N.am    
  34 C34           -6.7666     9.1119    -2.2476 C.3     
  35 C35           -5.2618     9.0045     2.7406 C.ar    
  36 C36           -4.1970     9.3831     3.5560 C.ar    
  37 C37           -3.0776     8.6134     3.6443 C.ar    
  38 C38           -4.7518     2.3697    -0.5366 C.3     
  39 F39           -4.6398     1.0227    -0.1754 F       
  40 F40           -5.3226     3.0895     0.5185 F       
  41 F41           -5.5631     2.4824    -1.6708 F       
  42 H42            1.7374    -0.6176    -2.6094 H       
  43 H43            3.2275    -0.4826    -0.6776 H       
  44 H44            3.7699     0.5688     1.5088 H       
  45 H45           -1.1240     3.6287     0.3537 H       
  46 H46            0.0343     5.2743     4.1353 H       
  47 H47            1.9742     3.8117     4.2217 H       
  48 H48            0.1105     4.3484    -1.6168 H       
  49 H49           -1.8725     5.7931    -1.8005 H       
  50 H50           -2.3832     1.0771    -0.4486 H       
  51 H51           -2.9399     4.2226     0.8201 H       
  52 H52           -1.0140     6.8655     3.5946 H       
  53 H53           -3.3490     6.8622    -1.2838 H       
  54 H54           -3.8425     6.2947    -2.8971 H       
  55 H55           -6.0482     7.5799     1.3823 H       
  56 H56           -4.7048     8.8016    -2.6486 H       
  57 H57           -7.0998     9.2417    -1.2180 H       
  58 H58           -6.6350    10.0888    -2.7128 H       
  59 H59           -7.5130     8.5430    -2.8021 H       
  60 H60           -6.1393     9.6319     2.6876 H       
  61 H61           -4.2608    10.2986     4.1254 H       
  62 H62           -2.2588     8.9167     4.2799 H       
@<TRIPOS>BOND
   1    1    2 am
   2    1   10 1
   3    1   17 1
   4    2    3 1
   5    2   15 2
   6    3    4 2
   7    3   42 1
   8    4    5 1
   9    4   43 1
  10    5    6 ar
  11    5   10 ar
  12    6    7 ar
  13    6   44 1
  14    7    8 ar
  15    8    9 ar
  16    8   14 ar
  17    9   10 ar
  18    9   11 ar
  19   11   12 ar
  20   11   45 1
  21   12   13 ar
  22   12   16 1
  23   13   14 ar
  24   13   46 1
  25   14   47 1
  26   16   24 ar
  27   16   28 ar
  28   17   18 ar
  29   17   22 ar
  30   18   19 ar
  31   18   48 1
  32   19   20 ar
  33   19   49 1
  34   20   21 ar
  35   20   23 1
  36   21   22 ar
  37   21   38 1
  38   22   50 1
  39   23   29 1
  40   24   25 ar
  41   24   51 1
  42   25   26 ar
  43   26   27 ar
  44   26   30 ar
  45   27   28 ar
  46   27   37 ar
  47   28   52 1
  48   29   31 1
  49   29   53 1
  50   29   54 1
  51   30   35 ar
  52   30   55 1
  53   31   32 2
  54   31   33 am
  55   33   34 1
  56   33   56 1
  57   34   57 1
  58   34   58 1
  59   34   59 1
  60   35   36 ar
  61   35   60 1
  62   36   37 ar
  63   36   61 1
  64   37   62 1
  65   38   39 1
  66   38   40 1
  67   38   41 1

#	End of record

