#	Name: ASD01914167
#	Creating user name:	WinNT
#	Creation time:	15. 06. 2019 20:03

#	Modifying user name:	WinNT
#	Modification time:	15. 06. 2019 20:03

#	Program:	/corina/corina34_cracker 3.40 0067  02.08.2006

@<TRIPOS>MOLECULE
ASD01914167
  52   55    0    0    0
SMALL
NO_CHARGES


@<TRIPOS>ATOM
   1 C1             1.9254     0.6742     0.6028 C.2     
   2 C2             1.6045    -0.7581     0.5575 C.2     
   3 N3             0.4064    -1.2965     0.3827 N.2     
   4 C4             0.6014    -2.6230     0.4128 C.2     
   5 N5             1.8717    -2.8318     0.5992 N.2     
   6 O6             2.4693    -1.7795     0.6795 O.3     
   7 C7            -0.4603    -3.6814     0.2586 C.3     
   8 C8            -0.1379    -4.5551    -0.9558 C.3     
   9 C9            -1.2327    -5.6097    -1.1327 C.3     
  10 C10           -1.2786    -6.5057     0.1090 C.3     
  11 N11           -1.4436    -5.6582     1.2978 N.am    
  12 C12           -0.4974    -4.5555     1.5161 C.3     
  13 C13           -2.4438    -5.8878     2.1715 C.2     
  14 C14           -2.5250    -5.1083     3.4215 C.ar    
  15 O15           -3.2792    -6.7375     1.9295 O.2     
  16 C16           -1.4782    -4.2272     5.3958 C.ar    
  17 C17           -3.8024    -3.7907     4.9854 C.ar    
  18 C18           -3.7375    -4.5208     3.8083 C.ar    
  19 C19           -1.3956    -4.9563     4.2291 C.ar    
  20 C20            0.0267    -7.2961     0.2197 C.3     
  21 C21           -2.6768    -3.6439     5.7719 C.ar    
  22 C22            3.1759     1.2225     0.7854 C.2     
  23 C23            3.0235     2.6148     0.7614 C.2     
  24 C24            1.7110     2.8848     0.5688 C.2     
  25 N25            1.0330     1.7111     0.4648 N.pl3   
  26 Cl26           4.2919     3.7856     0.9463 Cl      
  27 O27           -4.8422    -4.6655     3.0345 O.3     
  28 C28           -6.0418    -4.0383     3.4924 C.3     
  29 C29           -7.1713    -4.3097     2.4968 C.3     
  30 H30           -1.4306    -3.2054     0.1170 H       
  31 H31           -0.0866    -3.9316    -1.8484 H       
  32 H32            0.8214    -5.0497    -0.8029 H       
  33 H33           -2.1961    -5.1160    -1.2609 H       
  34 H34           -1.0147    -6.2167    -2.0114 H       
  35 H35           -2.1199    -7.1945     0.0317 H       
  36 H36            0.4963    -4.9596     1.7097 H       
  37 H37           -0.8232    -3.9576     2.3673 H       
  38 H38           -0.6033    -4.1068     6.0175 H       
  39 H39           -4.7343    -3.3360     5.2873 H       
  40 H40           -0.4591    -5.4097     3.9399 H       
  41 H41            0.8646    -6.6039     0.3031 H       
  42 H42           -0.0079    -7.9328     1.1037 H       
  43 H43            0.1534    -7.9146    -0.6688 H       
  44 H44           -2.7325    -3.0743     6.6878 H       
  45 H45            4.1002     0.6806     0.9220 H       
  46 H46            1.2749     3.8707     0.5037 H       
  47 H47            0.0777     1.6202     0.3233 H       
  48 H48           -6.3128    -4.4414     4.4682 H       
  49 H49           -5.8809    -2.9634     3.5753 H       
  50 H50           -6.9002    -3.9066     1.5210 H       
  51 H51           -7.3322    -5.3846     2.4140 H       
  52 H52           -8.0863    -3.8313     2.8461 H       
@<TRIPOS>BOND
   1    1    2 1
   2    1   22 2
   3    1   25 1
   4    2    3 2
   5    2    6 1
   6    3    4 1
   7    4    5 2
   8    4    7 1
   9    5    6 1
  10    7    8 1
  11    7   12 1
  12    7   30 1
  13    8    9 1
  14    8   31 1
  15    8   32 1
  16    9   10 1
  17    9   33 1
  18    9   34 1
  19   10   11 1
  20   10   20 1
  21   10   35 1
  22   11   12 1
  23   11   13 am
  24   12   36 1
  25   12   37 1
  26   13   14 1
  27   13   15 2
  28   14   19 ar
  29   14   18 ar
  30   16   21 ar
  31   16   19 ar
  32   16   38 1
  33   17   18 ar
  34   17   21 ar
  35   17   39 1
  36   18   27 1
  37   19   40 1
  38   20   41 1
  39   20   42 1
  40   20   43 1
  41   21   44 1
  42   22   23 1
  43   22   45 1
  44   23   24 2
  45   23   26 1
  46   24   25 1
  47   24   46 1
  48   25   47 1
  49   27   28 1
  50   28   29 1
  51   28   48 1
  52   28   49 1
  53   29   50 1
  54   29   51 1
  55   29   52 1

#	End of record

