#	Name: ASD02038767
#	Creating user name:	WinNT
#	Creation time:	15. 06. 2019 20:17

#	Modifying user name:	WinNT
#	Modification time:	15. 06. 2019 20:17

#	Program:	/corina/corina34_cracker 3.40 0067  02.08.2006

@<TRIPOS>MOLECULE
ASD02038767
  43   45    0    0    0
SMALL
NO_CHARGES


@<TRIPOS>ATOM
   1 C1            -1.2777    -0.8475     0.4641 C.2     
   2 C2            -0.0603    -0.0340     0.3009 C.2     
   3 N3             1.1370    -0.6350     0.1536 N.am    
   4 C4             1.2417    -2.0930     0.2512 C.3     
   5 C5             1.2140    -2.6923    -1.1313 C.ar    
   6 C6             2.3337     0.1697    -0.1042 C.3     
   7 O7            -0.1358     1.1799     0.2992 O.2     
   8 N8            -1.3387    -2.2033     0.4951 N.2     
   9 C9            -2.5790    -2.5654     0.6532 C.2     
  10 N10           -3.3578    -1.4549     0.7293 N.pl3   
  11 C11           -2.5485    -0.3754     0.6175 C.2     
  12 C12            2.3976    -3.0148    -1.7687 C.ar    
  13 C13            0.0051    -2.9247    -1.7596 C.ar    
  14 C14           -0.0204    -3.4744    -3.0279 C.ar    
  15 C15            1.1631    -3.7913    -3.6676 C.ar    
  16 C16            2.3722    -3.5644    -3.0367 C.ar    
  17 C17            2.1219     1.0138    -1.3648 C.3     
  18 C18            3.3449     1.9087    -1.5817 C.3     
  19 O19            3.5451     2.7275    -0.4278 O.3     
  20 C20            3.7951     1.9933     0.7724 C.3     
  21 C21            2.5902     1.1018     1.0840 C.3     
  22 C22            3.6626    -3.9099    -3.7342 C.3     
  23 F23            3.3821    -4.4413    -4.9975 F       
  24 F24            4.4397    -2.7553    -3.8760 F       
  25 F25            4.3640    -4.8539    -2.9765 F       
  26 H26            2.1775    -2.3579     0.7433 H       
  27 H27            0.4039    -2.4794     0.8316 H       
  28 H28            3.1917    -0.4876    -0.2454 H       
  29 H29           -2.9321    -3.5843     0.7138 H       
  30 H30           -4.3205    -1.4383     0.8468 H       
  31 H31           -2.8517     0.6609     0.6382 H       
  32 H32            3.3421    -2.8371    -1.2761 H       
  33 H33           -0.9197    -2.6771    -1.2597 H       
  34 H34           -0.9651    -3.6567    -3.5186 H       
  35 H35            1.1432    -4.2211    -4.6582 H       
  36 H36            1.9936     0.3573    -2.2254 H       
  37 H37            1.2338     1.6339    -1.2429 H       
  38 H38            4.2258     1.2874    -1.7438 H       
  39 H39            3.1816     2.5425    -2.4533 H       
  40 H40            4.6818     1.3732     0.6411 H       
  41 H41            3.9560     2.6881     1.5967 H       
  42 H42            1.7115     1.7237     1.2553 H       
  43 H43            2.7967     0.5083     1.9746 H       
@<TRIPOS>BOND
   1    1    2 1
   2    1    8 1
   3    1   11 2
   4    2    3 am
   5    2    7 2
   6    3    4 1
   7    3    6 1
   8    4    5 1
   9    4   26 1
  10    4   27 1
  11    5   12 ar
  12    5   13 ar
  13    6   17 1
  14    6   21 1
  15    6   28 1
  16    8    9 2
  17    9   10 1
  18    9   29 1
  19   10   11 1
  20   10   30 1
  21   11   31 1
  22   12   16 ar
  23   12   32 1
  24   13   14 ar
  25   13   33 1
  26   14   15 ar
  27   14   34 1
  28   15   16 ar
  29   15   35 1
  30   16   22 1
  31   17   18 1
  32   17   36 1
  33   17   37 1
  34   18   19 1
  35   18   38 1
  36   18   39 1
  37   19   20 1
  38   20   21 1
  39   20   40 1
  40   20   41 1
  41   21   42 1
  42   21   43 1
  43   22   23 1
  44   22   24 1
  45   22   25 1

#	End of record

