#	Name: ASD03621008
#	Creating user name:	WinNT
#	Creation time:	15. 06. 2019 20:43

#	Modifying user name:	WinNT
#	Modification time:	15. 06. 2019 20:43

#	Program:	/corina/corina34_cracker 3.40 0067  02.08.2006

@<TRIPOS>MOLECULE
ASD03621008
  93   97    0    0    0
SMALL
NO_CHARGES


@<TRIPOS>ATOM
   1 C1            -0.6673     1.7345    -2.0390 C.ar    
   2 C2            -0.6321     0.4875    -1.4434 C.ar    
   3 C3             0.5818    -0.1213    -1.1856 C.ar    
   4 C4             1.7607     0.5166    -1.5237 C.ar    
   5 C5             1.7255     1.7632    -2.1201 C.ar    
   6 C6             0.5116     2.3726    -2.3767 C.ar    
   7 C7             3.0841    -0.1468    -1.2418 C.3     
   8 C8             3.4903    -0.9821    -2.4285 C.2     
   9 N9             4.6479    -1.6718    -2.4025 N.am    
  10 O10            2.7754    -1.0337    -3.4069 O.2     
  11 C11            8.5220    -1.1993    -5.5329 C.2     
  12 N12            8.8531    -2.2479    -4.7537 N.am    
  13 O13            9.0097    -1.0868    -6.6376 O.2     
  14 C14            9.7157    -3.3084    -5.2804 C.3     
  15 C15            9.2774    -4.6371    -4.7205 C.2     
  16 N16            9.9304    -5.7635    -5.0685 N.am    
  17 O17            8.3371    -4.6927    -3.9565 O.2     
  18 C18           11.1652    -3.0364    -4.8729 C.3     
  19 C19           11.6513    -1.7825    -5.5531 C.ar    
  20 C20            9.4398    -7.0658    -4.6107 C.3     
  21 C21           10.5637    -7.8077    -3.8846 C.3     
  22 C22            8.9799    -7.8897    -5.8152 C.3     
  23 C23            7.7928    -7.2200    -6.4581 C.ar    
  24 C24            7.9843    -6.2883    -7.4612 C.ar    
  25 C25            6.8954    -5.6739    -8.0509 C.ar    
  26 C26            5.6150    -5.9916    -7.6379 C.ar    
  27 C27            5.4235    -6.9240    -6.6354 C.ar    
  28 C28            6.5122    -7.5415    -6.0487 C.ar    
  29 C29            7.5458    -0.1665    -5.0314 C.3     
  30 C30           11.6054    -0.5676    -4.8965 C.ar    
  31 N31           12.0290     0.5339    -5.4852 N.ar    
  32 C32           12.5100     0.5229    -6.7129 C.ar    
  33 C33           12.5872    -0.6553    -7.4315 C.ar    
  34 C34           12.1558    -1.8344    -6.8438 C.ar    
  35 C35            8.2679     0.8642    -4.1282 C.3     
  36 C36            7.0965     1.3893    -3.2567 C.3     
  37 C37            6.2208     0.1336    -3.0618 C.3     
  38 N38            6.5387    -0.7944    -4.1569 N.am    
  39 N39            5.0255    -2.4484    -3.5058 N.am    
  40 C40            5.9982    -2.0165    -4.3326 C.2     
  41 O41            6.3882    -2.7294    -5.2371 O.2     
  42 C42            4.3629    -3.7300    -3.7606 C.3     
  43 C43            3.2366    -3.5270    -4.7410 C.ar    
  44 C44            3.4976    -3.5027    -6.0983 C.ar    
  45 C45            2.4644    -3.3164    -6.9976 C.ar    
  46 C46            1.1701    -3.1549    -6.5396 C.ar    
  47 C47            0.9090    -3.1800    -5.1824 C.ar    
  48 C48            1.9416    -3.3706    -4.2833 C.ar    
  49 C49           10.9269    -7.0620    -2.6264 C.2     
  50 O50           10.3997    -6.0035    -2.3780 O.2     
  51 O51           11.8360    -7.5736    -1.7817 O.3     
  52 H52           -1.6158     2.2082    -2.2445 H       
  53 H53           -1.5531    -0.0109    -1.1792 H       
  54 H54            0.6093    -1.0953    -0.7196 H       
  55 H55            2.6465     2.2618    -2.3837 H       
  56 H56            0.4841     3.3467    -2.8423 H       
  57 H57            3.8410     0.6159    -1.0582 H       
  58 H58            2.9908    -0.7850    -0.3631 H       
  59 H59            5.2196    -1.6306    -1.6200 H       
  60 H60            8.5202    -2.3005    -3.8441 H       
  61 H61            9.6420    -3.3302    -6.3677 H       
  62 H62           10.7253    -5.7120    -5.6222 H       
  63 H63           11.2207    -2.9081    -3.7919 H       
  64 H64           11.7906    -3.8776    -5.1717 H       
  65 H65            8.6017    -6.9193    -3.9294 H       
  66 H66           10.2289    -8.8126    -3.6275 H       
  67 H67           11.4366    -7.8707    -4.5344 H       
  68 H68            9.7925    -7.9610    -6.5382 H       
  69 H69            8.6983    -8.8896    -5.4852 H       
  70 H70            8.9846    -6.0401    -7.7839 H       
  71 H71            7.0450    -4.9455    -8.8341 H       
  72 H72            4.7643    -5.5111    -8.0981 H       
  73 H73            4.4232    -7.1719    -6.3125 H       
  74 H74            6.3626    -8.2700    -5.2655 H       
  75 H75            7.0626     0.3361    -5.8693 H       
  76 H76           11.2177    -0.5194    -3.8896 H       
  77 H77           12.8472     1.4453    -7.1623 H       
  78 H78           12.9818    -0.6578    -8.4368 H       
  79 H79           12.2042    -2.7700    -7.3813 H       
  80 H80            9.0265     0.3807    -3.5128 H       
  81 H81            8.7031     1.6675    -4.7228 H       
  82 H82            7.4634     1.7562    -2.2981 H       
  83 H83            6.5433     2.1675    -3.7825 H       
  84 H84            6.4489    -0.3322    -2.1031 H       
  85 H85            5.1665     0.4071    -3.1019 H       
  86 H86            5.0831    -4.4351    -4.1756 H       
  87 H87            3.9645    -4.1251    -2.8262 H       
  88 H88            4.5087    -3.6289    -6.4561 H       
  89 H89            2.6684    -3.2968    -8.0579 H       
  90 H90            0.3630    -3.0086    -7.2422 H       
  91 H91           -0.1021    -3.0534    -4.8245 H       
  92 H92            1.7371    -3.3940    -3.2231 H       
  93 H93           12.0362    -7.0590    -0.9878 H       
@<TRIPOS>BOND
   1    1    2 ar
   2    1    6 ar
   3    1   52 1
   4    2    3 ar
   5    2   53 1
   6    3    4 ar
   7    3   54 1
   8    4    5 ar
   9    4    7 1
  10    5    6 ar
  11    5   55 1
  12    6   56 1
  13    7    8 1
  14    7   57 1
  15    7   58 1
  16    8    9 am
  17    8   10 2
  18    9   39 1
  19    9   59 1
  20   11   12 am
  21   11   13 2
  22   11   29 1
  23   12   14 1
  24   12   60 1
  25   14   15 1
  26   14   18 1
  27   14   61 1
  28   15   16 am
  29   15   17 2
  30   16   20 1
  31   16   62 1
  32   18   19 1
  33   18   63 1
  34   18   64 1
  35   19   30 ar
  36   19   34 ar
  37   20   21 1
  38   20   22 1
  39   20   65 1
  40   21   49 1
  41   21   66 1
  42   21   67 1
  43   22   23 1
  44   22   68 1
  45   22   69 1
  46   23   24 ar
  47   23   28 ar
  48   24   25 ar
  49   24   70 1
  50   25   26 ar
  51   25   71 1
  52   26   27 ar
  53   26   72 1
  54   27   28 ar
  55   27   73 1
  56   28   74 1
  57   29   35 1
  58   29   38 1
  59   29   75 1
  60   30   31 ar
  61   30   76 1
  62   31   32 ar
  63   32   33 ar
  64   32   77 1
  65   33   34 ar
  66   33   78 1
  67   34   79 1
  68   35   36 1
  69   35   80 1
  70   35   81 1
  71   36   37 1
  72   36   82 1
  73   36   83 1
  74   37   38 1
  75   37   84 1
  76   37   85 1
  77   38   40 am
  78   39   40 am
  79   39   42 1
  80   40   41 2
  81   42   43 1
  82   42   86 1
  83   42   87 1
  84   43   44 ar
  85   43   48 ar
  86   44   45 ar
  87   44   88 1
  88   45   46 ar
  89   45   89 1
  90   46   47 ar
  91   46   90 1
  92   47   48 ar
  93   47   91 1
  94   48   92 1
  95   49   50 2
  96   49   51 1
  97   51   93 1

#	End of record

