#	Name: ASD01948323
#	Creating user name:	WinNT
#	Creation time:	15. 06. 2019 20:14

#	Modifying user name:	WinNT
#	Modification time:	15. 06. 2019 20:14

#	Program:	/corina/corina34_cracker 3.40 0067  02.08.2006

@<TRIPOS>MOLECULE
ASD01948323
  63   65    0    0    0
SMALL
NO_CHARGES


@<TRIPOS>ATOM
   1 C1             0.5869     1.5241     0.3655 C.2     
   2 N2             0.5847     0.1616     0.3076 N.am    
   3 C3             1.7227    -0.5446     0.4394 C.2     
   4 C4             2.9578     1.5210     0.7023 C.2     
   5 C5             1.7361     2.2149     0.5580 C.2     
   6 C6             3.9296     3.2225    -1.2831 C.ar    
   7 C7             4.5912     3.1158    -0.0671 C.ar    
   8 N8             4.1399     2.2106     0.8994 N.pl3   
   9 C9             4.3775     4.1168    -2.2359 C.ar    
  10 C10            5.4845     4.9065    -1.9805 C.ar    
  11 C11            6.1471     4.8037    -0.7702 C.ar    
  12 C12            5.7039     3.9105     0.1879 C.ar    
  13 N13            1.7127     3.6184     0.6150 N.am    
  14 S14            0.2793     4.4302     0.4456 S.o2    
  15 N15           -0.6683     4.0276     1.7427 N.am    
  16 O16            1.6937    -1.7636     0.3837 O.2     
  17 C17           -0.6804    -0.5468     0.0983 C.3     
  18 F18            6.3504     3.8102     1.3700 F       
  19 Br19           6.0937     6.1285    -3.2887 Br      
  20 O20            0.5819     5.8118     0.5832 O.2     
  21 O21           -0.3578     3.8846    -0.7014 O.2     
  22 C22            2.9503     0.1231     0.6416 C.2     
  23 C23           -0.6105     4.8278     2.9685 C.3     
  24 C24           -1.5644     2.8713     1.6643 C.3     
  25 C25           -1.3402     1.7348     2.6639 C.3     
  26 C26           -2.5485     2.6609     2.8167 C.3     
  27 C27            0.3902     4.1998     3.9407 C.3     
  28 O28            1.7008     4.2491     3.3733 O.3     
  29 C29            0.3758     4.9757     5.2593 C.3     
  30 O30            1.2226     4.3214     6.2063 O.3     
  31 C31           -0.5964    -1.3717    -1.1875 C.3     
  32 C32           -0.9467    -1.4763     1.2841 C.3     
  33 C33            4.1673    -0.6182     0.7832 C.1     
  34 C34            5.1650    -1.2258     0.8993 C.1     
  35 C35            6.4161    -1.9878     1.0449 C.3     
  36 H36           -0.3429     2.0617     0.2515 H       
  37 H37            3.0680     2.6036    -1.4857 H       
  38 H38            4.6563     2.0667     1.7078 H       
  39 H39            3.8630     4.1994    -3.1819 H       
  40 H40            7.0111     5.4211    -0.5738 H       
  41 H41            2.5362     4.1120     0.7535 H       
  42 H42           -1.4919     0.1760     0.0139 H       
  43 H43           -0.2936     5.8421     2.7257 H       
  44 H44           -1.5972     4.8563     3.4307 H       
  45 H45           -1.8974     2.6017     0.6621 H       
  46 H46           -1.5262     0.7176     2.3193 H       
  47 H47           -0.5260     1.8475     3.3798 H       
  48 H48           -2.5293     3.3828     3.6332 H       
  49 H49           -3.5294     2.2528     2.5728 H       
  50 H50            0.1136     3.1620     4.1268 H       
  51 H51            1.9830     5.1363     3.1117 H       
  52 H52            0.7374     5.9897     5.0882 H       
  53 H53           -0.6421     5.0137     5.6474 H       
  54 H54            1.2618     4.7595     7.0675 H       
  55 H55            0.2151    -2.0946    -1.1031 H       
  56 H56           -1.5377    -1.8988    -1.3432 H       
  57 H57           -0.4067    -0.7096    -2.0323 H       
  58 H58           -1.0065    -0.8886     2.2001 H       
  59 H59           -1.8880    -2.0033     1.1284 H       
  60 H60           -0.1352    -2.1991     1.3685 H       
  61 H61            7.2468    -1.2976     1.1917 H       
  62 H62            6.3389    -2.6519     1.9057 H       
  63 H63            6.5888    -2.5780     0.1449 H       
@<TRIPOS>BOND
   1    1    2 1
   2    1    5 2
   3    1   36 1
   4    2    3 am
   5    2   17 1
   6    3   22 1
   7    3   16 2
   8    4    5 1
   9    4    8 1
  10    4   22 2
  11    5   13 1
  12    6    7 ar
  13    6    9 ar
  14    6   37 1
  15    7    8 1
  16    7   12 ar
  17    8   38 1
  18    9   10 ar
  19    9   39 1
  20   10   11 ar
  21   10   19 1
  22   11   12 ar
  23   11   40 1
  24   12   18 1
  25   13   14 am
  26   13   41 1
  27   14   15 am
  28   14   20 2
  29   14   21 2
  30   15   23 1
  31   15   24 1
  32   17   31 1
  33   17   32 1
  34   17   42 1
  35   22   33 1
  36   23   27 1
  37   23   43 1
  38   23   44 1
  39   24   25 1
  40   24   26 1
  41   24   45 1
  42   25   26 1
  43   25   46 1
  44   25   47 1
  45   26   48 1
  46   26   49 1
  47   27   28 1
  48   27   29 1
  49   27   50 1
  50   28   51 1
  51   29   30 1
  52   29   52 1
  53   29   53 1
  54   30   54 1
  55   31   55 1
  56   31   56 1
  57   31   57 1
  58   32   58 1
  59   32   59 1
  60   32   60 1
  61   33   34 3
  62   34   35 1
  63   35   61 1
  64   35   62 1
  65   35   63 1

#	End of record

