#	Name: ASD03091630
#	Creating user name:	WinNT
#	Creation time:	15. 06. 2019 20:31

#	Modifying user name:	WinNT
#	Modification time:	15. 06. 2019 20:31

#	Program:	/corina/corina34_cracker 3.40 0067  02.08.2006

@<TRIPOS>MOLECULE
ASD03091630
  43   46    0    0    0
SMALL
NO_CHARGES


@<TRIPOS>ATOM
   1 Cl1            0.0000     0.0000     0.0000 Cl      
   2 H2             0.0000     1.3700     0.0000 H       
   3 C3            14.5222    10.3501     6.5717 C.ar    
   4 C4            14.5412     8.9498     6.5640 C.ar    
   5 C5            15.7621     8.2688     6.5484 C.ar    
   6 C6            16.9493     8.9686     6.5404 C.ar    
   7 C7            16.9370    10.3695     6.5488 C.ar    
   8 C8            15.7556    11.0472     6.5637 C.ar    
   9 S9            12.8909     8.3379     6.5768 S.3     
  10 C10           12.2348     9.9654     6.5910 C.2     
  11 C11           13.2191    10.8712     6.5812 C.2     
  12 C12           10.8023    10.2885     6.6059 C.2     
  13 O13           10.4408    11.4503     6.6146 O.2     
  14 N14            9.8881     9.2982     6.6099 N.am    
  15 N15            6.9511     8.8776     8.4050 N.3     
  16 C16            7.9996     9.8496     8.0675 C.3     
  17 C17            8.4591     9.6206     6.6247 C.3     
  18 C18            7.6624     8.4520     6.0311 C.3     
  19 C19            6.1695     8.7999     6.0859 C.3     
  20 C20            5.7734     9.0510     7.5436 C.3     
  21 C21            7.4616     7.5019     8.3272 C.3     
  22 C22            7.9064     7.2062     6.8921 C.3     
  23 O23           18.2471     8.5459     6.5244 O.3     
  24 C24           19.0190     9.6873     6.1081 C.3     
  25 O25           18.2307    10.8122     6.5384 O.3     
  26 H26           15.7748     7.1889     6.5429 H       
  27 H27           15.7591    12.1272     6.5700 H       
  28 H28           13.0240    11.9334     6.5880 H       
  29 H29           10.1763     8.3721     6.6029 H       
  30 H30            7.6041    10.8604     8.1671 H       
  31 H31            8.8453     9.7215     8.7431 H       
  32 H32            8.2797    10.5209     6.0370 H       
  33 H33            7.9685     8.2751     5.0000 H       
  34 H34            5.9818     9.6975     5.4966 H       
  35 H35            5.5862     7.9701     5.6867 H       
  36 H36            5.0000     8.3414     7.8377 H       
  37 H37            5.3934    10.0673     7.6473 H       
  38 H38            8.3108     7.3904     9.0014 H       
  39 H39            6.6744     6.8050     8.6148 H       
  40 H40            7.3302     6.3700     6.4961 H       
  41 H41            8.9677     6.9578     6.8825 H       
  42 H42           19.9917     9.6913     6.5999 H       
  43 H43           19.1369     9.6949     5.0245 H       
@<TRIPOS>BOND
   1    1    2 1
   2    3    4 ar
   3    3    8 ar
   4    3   11 1
   5    4    5 ar
   6    4    9 1
   7    5    6 ar
   8    5   26 1
   9    6    7 ar
  10    6   23 1
  11    7    8 ar
  12    7   25 1
  13    8   27 1
  14    9   10 1
  15   10   11 2
  16   10   12 1
  17   11   28 1
  18   12   13 2
  19   12   14 am
  20   14   17 1
  21   14   29 1
  22   15   16 1
  23   15   20 1
  24   15   21 1
  25   16   17 1
  26   16   30 1
  27   16   31 1
  28   17   18 1
  29   17   32 1
  30   18   19 1
  31   18   22 1
  32   18   33 1
  33   19   20 1
  34   19   34 1
  35   19   35 1
  36   20   36 1
  37   20   37 1
  38   21   22 1
  39   21   38 1
  40   21   39 1
  41   22   40 1
  42   22   41 1
  43   23   24 1
  44   24   25 1
  45   24   42 1
  46   24   43 1

#	End of record

