#	Name: ASD06560005
#	Creating user name:	WinNT
#	Creation time:	15. 06. 2019 21:06

#	Modifying user name:	WinNT
#	Modification time:	15. 06. 2019 21:06

#	Program:	/corina/corina34_cracker 3.40 0067  02.08.2006

@<TRIPOS>MOLECULE
ASD06560005
  43   45    0    0    0
SMALL
NO_CHARGES


@<TRIPOS>ATOM
   1 C1            -0.0176     1.4478     0.0100 C.3     
   2 O2             0.0021    -0.0041     0.0020 O.3     
   3 C3            -1.1855    -0.6297     0.0100 C.2     
   4 O4            -2.2076     0.0145     0.0232 O.2     
   5 C5            -1.2439    -2.1355     0.0025 C.3     
   6 C6            -0.5310    -2.6827     1.2424 C.3     
   7 C7            -1.2998    -2.2754     2.5026 C.3     
   8 C8            -2.7629    -2.7244     2.3597 C.3     
   9 N9            -3.3465    -1.9689     1.2194 N.3     
  10 C10           -2.7109    -2.5939     0.0290 C.3     
  11 C11           -2.7275    -4.1082     0.3406 C.3     
  12 C12           -2.7619    -4.1944     1.8807 C.3     
  13 C13           -4.8068    -2.1228     1.1781 C.3     
  14 O14            0.8157    -2.1431     1.3027 O.3     
  15 C15            1.7569    -2.9115     1.8844 C.2     
  16 O16            1.4608    -4.0024     2.3290 O.2     
  17 C17            3.1492    -2.4274     1.9814 C.ar    
  18 C18            4.1273    -3.2213     2.5837 C.ar    
  19 C19            5.4255    -2.7631     2.6711 C.ar    
  20 C20            5.7593    -1.5199     2.1635 C.ar    
  21 C21            4.7951    -0.7281     1.5654 C.ar    
  22 C22            3.4943    -1.1764     1.4662 C.ar    
  23 H23            1.0050     1.8251     0.0023 H       
  24 H24           -0.5448     1.8089    -0.8731 H       
  25 H25           -0.5278     1.7993     0.9068 H       
  26 H26           -0.7572    -2.5153    -0.8958 H       
  27 H27           -0.4828    -3.7700     1.1827 H       
  28 H28           -0.8539    -2.7558     3.3735 H       
  29 H29           -1.2601    -1.1925     2.6205 H       
  30 H30           -3.3279    -2.5821     3.2810 H       
  31 H31           -3.2345    -2.3483    -0.8949 H       
  32 H32           -3.6165    -4.5733    -0.0853 H       
  33 H33           -1.8268    -4.5849    -0.0460 H       
  34 H34           -1.8780    -4.7135     2.2514 H       
  35 H35           -3.6678    -4.7019     2.2121 H       
  36 H36           -5.2381    -1.7470     2.1060 H       
  37 H37           -5.2080    -1.5585     0.3363 H       
  38 H38           -5.0579    -3.1770     1.0616 H       
  39 H39            3.8680    -4.1917     2.9806 H       
  40 H40            6.1829    -3.3760     3.1370 H       
  41 H41            6.7772    -1.1659     2.2349 H       
  42 H42            5.0623     0.2414     1.1717 H       
  43 H43            2.7426    -0.5574     0.9992 H       
@<TRIPOS>BOND
   1    1    2 1
   2    1   23 1
   3    1   24 1
   4    1   25 1
   5    2    3 1
   6    3    4 2
   7    3    5 1
   8    5    6 1
   9    5   10 1
  10    5   26 1
  11    6    7 1
  12    6   14 1
  13    6   27 1
  14    7    8 1
  15    7   28 1
  16    7   29 1
  17    8    9 1
  18    8   12 1
  19    8   30 1
  20    9   10 1
  21    9   13 1
  22   10   11 1
  23   10   31 1
  24   11   12 1
  25   11   32 1
  26   11   33 1
  27   12   34 1
  28   12   35 1
  29   13   36 1
  30   13   37 1
  31   13   38 1
  32   14   15 1
  33   15   16 2
  34   15   17 1
  35   17   18 ar
  36   17   22 ar
  37   18   19 ar
  38   18   39 1
  39   19   20 ar
  40   19   40 1
  41   20   21 ar
  42   20   41 1
  43   21   22 ar
  44   21   42 1
  45   22   43 1

#	End of record

