#	Name: ASD01914417
#	Creating user name:	WinNT
#	Creation time:	15. 06. 2019 20:03

#	Modifying user name:	WinNT
#	Modification time:	15. 06. 2019 20:03

#	Program:	/corina/corina34_cracker 3.40 0067  02.08.2006

@<TRIPOS>MOLECULE
ASD01914417
  59   63    0    0    0
SMALL
NO_CHARGES


@<TRIPOS>ATOM
   1 C1            -0.0167     1.3769     0.0096 C.ar    
   2 C2             0.0021    -0.0041     0.0020 C.ar    
   3 C3             1.2140    -0.6809    -0.0132 C.ar    
   4 C4             2.4051     0.0320    -0.0207 C.ar    
   5 C5             2.3825     1.4129    -0.0131 C.ar    
   6 C6             1.1726     2.0864     0.0021 C.ar    
   7 N7             1.2350    -2.0834    -0.0204 N.pl3   
   8 C8             0.5462    -2.9103     0.8266 C.2     
   9 C9             0.8555    -4.1832     0.4668 C.2     
  10 N10            1.7113    -4.1229    -0.5735 N.2     
  11 C11            1.9378    -2.8743    -0.8730 C.2     
  12 C12            0.3430    -5.4205     1.1056 C.ar    
  13 C13            0.7449    -6.6685     0.6329 C.ar    
  14 C14            0.2667    -7.8168     1.2288 C.ar    
  15 C15           -0.6143    -7.7305     2.2979 C.ar    
  16 C16           -1.0165    -6.4890     2.7710 C.ar    
  17 C17           -0.5369    -5.3370     2.1833 C.ar    
  18 C18            2.8392    -2.3876    -1.9783 C.3     
  19 O19            0.8593    -2.5094    -3.2569 O.2     
  20 C20            2.0426    -2.2433    -3.2493 C.2     
  21 N21            2.6450    -1.8185    -4.3776 N.am    
  22 F22            1.1524     3.4372     0.0095 F       
  23 O23           -1.0845    -8.8638     2.8825 O.3     
  24 C24           -1.9879    -8.7020     3.9778 C.3     
  25 C25            1.8198    -1.7006    -5.5705 C.3     
  26 C26            1.6388    -0.2142    -5.9219 C.3     
  27 C27            2.9444     0.2678    -6.5341 C.2     
  28 C28            4.1029     0.3779    -5.8855 C.2     
  29 C29            4.2874    -0.0017    -4.4169 C.3     
  30 C30            4.0640    -1.5105    -4.3001 C.3     
  31 S31            3.1737     0.7694    -8.2041 S.3     
  32 C32            4.8177     1.1080    -7.8776 C.2     
  33 N33            5.0868     0.8453    -6.6460 N.2     
  34 C34            5.8071     1.6361    -8.8841 C.3     
  35 H35           -0.9594     1.9038     0.0169 H       
  36 H36           -0.9256    -0.5571     0.0082 H       
  37 H37            3.3489    -0.4929    -0.0321 H       
  38 H38            3.3090     1.9679    -0.0185 H       
  39 H39           -0.1145    -2.6088     1.6260 H       
  40 H40            1.4298    -6.7363    -0.1994 H       
  41 H41            0.5778    -8.7842     0.8629 H       
  42 H42           -1.7021    -6.4250     3.6030 H       
  43 H43           -0.8499    -4.3714     2.5520 H       
  44 H44            3.2625    -1.4215    -1.7031 H       
  45 H45            3.6441    -3.1060    -2.1336 H       
  46 H46           -2.8706    -8.1571     3.6434 H       
  47 H47           -2.2856    -9.6819     4.3510 H       
  48 H48           -1.4965    -8.1437     4.7746 H       
  49 H49            2.3052    -2.2139    -6.4006 H       
  50 H50            0.8450    -2.1514    -5.3842 H       
  51 H51            0.8274    -0.0991    -6.6406 H       
  52 H52            1.4196     0.3563    -5.0193 H       
  53 H53            5.2973     0.2501    -4.0933 H       
  54 H54            3.5583     0.5274    -3.8032 H       
  55 H55            4.4581    -1.8617    -3.3464 H       
  56 H56            4.5844    -2.0171    -5.1129 H       
  57 H57            5.7959     2.7259    -8.8673 H       
  58 H58            6.8061     1.2791    -8.6335 H       
  59 H59            5.5351     1.2852    -9.8796 H       
@<TRIPOS>BOND
   1    1    2 ar
   2    1    6 ar
   3    1   35 1
   4    2    3 ar
   5    2   36 1
   6    3    4 ar
   7    3    7 1
   8    4    5 ar
   9    4   37 1
  10    5    6 ar
  11    5   38 1
  12    6   22 1
  13    7    8 1
  14    7   11 1
  15    8    9 2
  16    8   39 1
  17    9   10 1
  18    9   12 1
  19   10   11 2
  20   11   18 1
  21   12   13 ar
  22   12   17 ar
  23   13   14 ar
  24   13   40 1
  25   14   15 ar
  26   14   41 1
  27   15   16 ar
  28   15   23 1
  29   16   17 ar
  30   16   42 1
  31   17   43 1
  32   18   20 1
  33   18   44 1
  34   18   45 1
  35   19   20 2
  36   20   21 am
  37   21   25 1
  38   21   30 1
  39   23   24 1
  40   24   46 1
  41   24   47 1
  42   24   48 1
  43   25   26 1
  44   25   49 1
  45   25   50 1
  46   26   27 1
  47   26   51 1
  48   26   52 1
  49   27   28 2
  50   27   31 1
  51   28   29 1
  52   28   33 1
  53   29   30 1
  54   29   53 1
  55   29   54 1
  56   30   55 1
  57   30   56 1
  58   31   32 1
  59   32   33 2
  60   32   34 1
  61   34   57 1
  62   34   58 1
  63   34   59 1

#	End of record

