#	Name: ASD07932160
#	Creating user name:	WinNT
#	Creation time:	15. 06. 2019 21:14

#	Modifying user name:	WinNT
#	Modification time:	15. 06. 2019 21:14

#	Program:	/corina/corina34_cracker 3.40 0067  02.08.2006

@<TRIPOS>MOLECULE
ASD07932160
  34   35    0    0    0
SMALL
NO_CHARGES


@<TRIPOS>ATOM
   1 C1            -0.0159     1.3217     0.0093 C.ar    
   2 N2             0.0021    -0.0041     0.0020 N.ar    
   3 C3            -1.1324    -0.6802     0.0097 C.ar    
   4 C4            -2.3489     0.0011     0.0254 C.ar    
   5 N5            -2.3650     1.3335     0.0327 N.ar    
   6 C6            -1.2340     2.0045     0.0304 C.ar    
   7 C7            -3.6193    -0.7539     0.0335 C.2     
   8 O8            -3.6041    -1.9685     0.0264 O.2     
   9 O9            -4.7943    -0.0951     0.0487 O.3     
  10 O10            1.1483     2.0144     0.0019 O.3     
  11 C11            2.3568     1.2519    -0.0137 C.3     
  12 C12            3.5578     2.1998    -0.0201 C.3     
  13 O13            3.5906     2.9353     1.2047 O.3     
  14 C14            4.6167     4.5713     2.6256 C.ar    
  15 C15            5.2645     4.0456     3.7278 C.ar    
  16 C16            5.2110     4.7060     4.9411 C.ar    
  17 C17            4.5100     5.8922     5.0520 C.ar    
  18 C18            3.8630     6.4184     3.9496 C.ar    
  19 C19            3.9154     5.7574     2.7367 C.ar    
  20 C20            4.6803     3.8547     1.3015 C.3     
  21 H21           -1.1179    -1.7601     0.0034 H       
  22 H22           -1.2473     3.0844     0.0367 H       
  23 H23           -5.5986    -0.6320     0.0535 H       
  24 H24            2.3984     0.6187     0.8725 H       
  25 H25            2.3814     0.6283    -0.9073 H       
  26 H26            4.4763     1.6217    -0.1215 H       
  27 H27            3.4698     2.8921    -0.8574 H       
  28 H28            5.8122     3.1188     3.6412 H       
  29 H29            5.7165     4.2949     5.8024 H       
  30 H30            4.4676     6.4078     6.0001 H       
  31 H31            3.3147     7.3449     4.0364 H       
  32 H32            3.4092     6.1681     1.8755 H       
  33 H33            5.6221     3.3110     1.2274 H       
  34 H34            4.6156     4.5813     0.4916 H       
@<TRIPOS>BOND
   1    1    2 ar
   2    1   10 1
   3    1    6 ar
   4    2    3 ar
   5    3    4 ar
   6    3   21 1
   7    4    5 ar
   8    4    7 1
   9    5    6 ar
  10    6   22 1
  11    7    8 2
  12    7    9 1
  13    9   23 1
  14   10   11 1
  15   11   12 1
  16   11   24 1
  17   11   25 1
  18   12   13 1
  19   12   26 1
  20   12   27 1
  21   13   20 1
  22   14   15 ar
  23   14   19 ar
  24   14   20 1
  25   15   16 ar
  26   15   28 1
  27   16   17 ar
  28   16   29 1
  29   17   18 ar
  30   17   30 1
  31   18   19 ar
  32   18   31 1
  33   19   32 1
  34   20   33 1
  35   20   34 1

#	End of record

