#	Name: ASD01883454
#	Creating user name:	WinNT
#	Creation time:	15. 06. 2019 19:46

#	Modifying user name:	WinNT
#	Modification time:	15. 06. 2019 19:46

#	Program:	/corina/corina34_cracker 3.40 0067  02.08.2006

@<TRIPOS>MOLECULE
ASD01883454
  61   63    0    0    0
SMALL
NO_CHARGES


@<TRIPOS>ATOM
   1 N1             0.0096     1.2875     0.0171 N.am    
   2 C2            -0.2750     0.4790    -1.0207 C.2     
   3 C3            -1.5031    -0.2231    -1.0519 C.2     
   4 C4            -2.4034    -0.0556     0.0138 C.2     
   5 C5            -2.0487     0.8036     1.0702 C.2     
   6 C6            -0.8597     1.4444     1.0491 C.2     
   7 O7             0.5242     0.3521    -1.9329 O.2     
   8 C8            -1.8223    -1.0870    -2.1484 C.1     
   9 N9            -2.0756    -1.7724    -3.0182 N.1     
  10 N10           -3.6097    -0.7191     0.0239 N.pl3   
  11 C11           -4.8727     0.0253     0.1203 C.3     
  12 C12           -5.6871    -0.5348     1.2907 C.3     
  13 C13           -5.8597    -2.0447     1.1106 C.3     
  14 C14           -4.4865    -2.7204     1.1105 C.3     
  15 C15           -3.6588    -2.1847    -0.0677 C.3     
  16 C16            1.2850     2.0081     0.0369 C.3     
  17 C17            1.1149     3.3649    -0.6494 C.3     
  18 C18            2.4469     4.1175    -0.6287 C.3     
  19 C19            2.3101     5.4182    -1.4227 C.3     
  20 C20            2.8278     4.4404     0.8175 C.3     
  21 N21           -6.6662    -2.5785     2.2109 N.pl3   
  22 C22           -7.9272    -3.1210     1.9533 C.ar    
  23 C23           -8.4727    -3.0396     0.6786 C.ar    
  24 C24           -9.7198    -3.5775     0.4271 C.ar    
  25 C25          -10.4252    -4.1961     1.4427 C.ar    
  26 C26           -9.8849    -4.2790     2.7132 C.ar    
  27 C27           -8.6363    -3.7484     2.9701 C.ar    
  28 C28           -6.1501    -2.5433     3.5815 C.3     
  29 C29          -10.3125    -3.4896    -0.9557 C.3     
  30 F30           -9.9357    -4.6147    -1.6969 F       
  31 F31          -11.7075    -3.4382    -0.8627 F       
  32 F32           -9.8446    -2.3344    -1.5911 F       
  33 H33           -2.7253     0.9477     1.8996 H       
  34 H34           -0.5983     2.1013     1.8656 H       
  35 H35           -4.6625     1.0808     0.2934 H       
  36 H36           -5.4365    -0.0901    -0.8054 H       
  37 H37           -5.1631    -0.3375     2.2259 H       
  38 H38           -6.6665    -0.0569     1.3142 H       
  39 H39           -6.3617    -2.2424     0.1635 H       
  40 H40           -3.9738    -2.5026     2.0473 H       
  41 H41           -4.6114    -3.7981     1.0056 H       
  42 H42           -4.1250    -2.4821    -1.0069 H       
  43 H43           -2.6470    -2.5869    -0.0161 H       
  44 H44            1.6004     2.1601     1.0691 H       
  45 H45            2.0397     1.4257    -0.4916 H       
  46 H46            0.7994     3.2129    -1.6817 H       
  47 H47            0.3602     3.9474    -0.1209 H       
  48 H48            3.2218     3.4969    -1.0787 H       
  49 H49            1.5352     6.0388    -0.9727 H       
  50 H50            3.2590     5.9543    -1.4079 H       
  51 H51            2.0387     5.1882    -2.4530 H       
  52 H52            2.9252     3.5137     1.3831 H       
  53 H53            3.7767     4.9765     0.8322 H       
  54 H54            2.0528     5.0609     1.2674 H       
  55 H55           -7.9226    -2.5559    -0.1150 H       
  56 H56          -11.4004    -4.6153     1.2435 H       
  57 H57          -10.4387    -4.7625     3.5043 H       
  58 H58           -8.2148    -3.8137     3.9623 H       
  59 H59           -6.4480    -1.6094     4.0581 H       
  60 H60           -6.5559    -3.3840     4.1443 H       
  61 H61           -5.0623    -2.6104     3.5620 H       
@<TRIPOS>BOND
   1    1    2 am
   2    1   16 1
   3    1    6 1
   4    2    3 1
   5    2    7 2
   6    3    4 2
   7    3    8 1
   8    4    5 1
   9    4   10 1
  10    5    6 2
  11    5   33 1
  12    6   34 1
  13    8    9 3
  14   10   11 1
  15   10   15 1
  16   11   12 1
  17   11   35 1
  18   11   36 1
  19   12   13 1
  20   12   37 1
  21   12   38 1
  22   13   14 1
  23   13   21 1
  24   13   39 1
  25   14   15 1
  26   14   40 1
  27   14   41 1
  28   15   42 1
  29   15   43 1
  30   16   17 1
  31   16   44 1
  32   16   45 1
  33   17   18 1
  34   17   46 1
  35   17   47 1
  36   18   19 1
  37   18   20 1
  38   18   48 1
  39   19   49 1
  40   19   50 1
  41   19   51 1
  42   20   52 1
  43   20   53 1
  44   20   54 1
  45   21   22 1
  46   21   28 1
  47   22   23 ar
  48   22   27 ar
  49   23   24 ar
  50   23   55 1
  51   24   25 ar
  52   24   29 1
  53   25   26 ar
  54   25   56 1
  55   26   27 ar
  56   26   57 1
  57   27   58 1
  58   28   59 1
  59   28   60 1
  60   28   61 1
  61   29   30 1
  62   29   31 1
  63   29   32 1

#	End of record

