#	Name: ASD07930718
#	Creating user name:	WinNT
#	Creation time:	15. 06. 2019 21:13

#	Modifying user name:	WinNT
#	Modification time:	15. 06. 2019 21:13

#	Program:	/corina/corina34_cracker 3.40 0067  02.08.2006

@<TRIPOS>MOLECULE
ASD07930718
  42   44    0    0    0
SMALL
NO_CHARGES


@<TRIPOS>ATOM
   1 C1            -0.0178     1.4608     0.0101 C.3     
   2 N2             0.8031    -0.4153    -2.1619 N.2     
   3 N3            -0.8796    -1.7833    -1.2911 N.pl3   
   4 C4            -0.9005    -2.8248    -0.2586 C.3     
   5 C5            -1.2102    -2.1834     1.1010 C.3     
   6 S6             0.0275    -0.8859     1.4156 S.o2    
   7 N7             0.0021    -0.0041     0.0020 N.am    
   8 C8             0.0002    -0.7257    -1.1832 C.2     
   9 C9             0.4646    -3.5132    -0.1997 C.3     
  10 O10           -0.4323     0.0192     2.4099 O.2     
  11 O11            1.3354    -1.4387     1.4687 O.2     
  12 C12           -1.9634    -3.8404    -0.5898 C.2     
  13 S13           -2.8660    -4.7816     0.5901 S.3     
  14 C14           -3.7644    -5.5844    -0.6914 C.2     
  15 C15           -3.3529    -5.1193    -1.8877 C.2     
  16 C16           -2.3661    -4.1572    -1.8238 C.2     
  17 C17           -4.8089    -6.6108    -0.4879 C.ar    
  18 C18           -5.4626    -7.1860    -1.5824 C.ar    
  19 C19           -6.4356    -8.1459    -1.3366 C.ar    
  20 C20           -6.7233    -8.4982    -0.0251 C.ar    
  21 N21           -6.0879    -7.9355     0.9844 N.ar    
  22 C22           -5.1544    -7.0255     0.7995 C.ar    
  23 O23           -7.0986    -8.7330    -2.3677 O.3     
  24 C24           -8.0850    -9.7109    -2.0319 C.3     
  25 H25            1.0048     1.8381     0.0023 H       
  26 H26           -0.5450     1.8219    -0.8730 H       
  27 H27           -0.5280     1.8123     0.9069 H       
  28 H28            0.7883    -0.9307    -2.9835 H       
  29 H29           -1.4804    -1.8399    -2.0505 H       
  30 H30           -2.2071    -1.7432     1.0811 H       
  31 H31           -1.1573    -2.9394     1.8845 H       
  32 H32            1.2322    -2.7780     0.0418 H       
  33 H33            0.4485    -4.2871     0.5677 H       
  34 H34            0.6857    -3.9650    -1.1667 H       
  35 H35           -3.7657    -5.4694    -2.8222 H       
  36 H36           -1.9452    -3.6989    -2.7065 H       
  37 H37           -5.2174    -6.8912    -2.5921 H       
  38 H38           -7.4791    -9.2442     0.1717 H       
  39 H39           -4.6574    -6.5886     1.6531 H       
  40 H40           -7.6152   -10.5272    -1.4831 H       
  41 H41           -8.8551    -9.2521    -1.4119 H       
  42 H42           -8.5369   -10.0994    -2.9445 H       
@<TRIPOS>BOND
   1    1    7 1
   2    1   25 1
   3    1   26 1
   4    1   27 1
   5    2    8 2
   6    2   28 1
   7    3    4 1
   8    3    8 1
   9    3   29 1
  10    4    5 1
  11    4    9 1
  12    4   12 1
  13    5    6 1
  14    5   30 1
  15    5   31 1
  16    6    7 am
  17    6   10 2
  18    6   11 2
  19    7    8 1
  20    9   32 1
  21    9   33 1
  22    9   34 1
  23   12   13 1
  24   12   16 2
  25   13   14 1
  26   14   15 2
  27   14   17 1
  28   15   16 1
  29   15   35 1
  30   16   36 1
  31   17   18 ar
  32   17   22 ar
  33   18   19 ar
  34   18   37 1
  35   19   20 ar
  36   19   23 1
  37   20   21 ar
  38   20   38 1
  39   21   22 ar
  40   22   39 1
  41   23   24 1
  42   24   40 1
  43   24   41 1
  44   24   42 1

#	End of record

