#	Name: ASD01410695
#	Creating user name:	WinNT
#	Creation time:	15. 06. 2019 19:18

#	Modifying user name:	WinNT
#	Modification time:	15. 06. 2019 19:18

#	Program:	/corina/corina34_cracker 3.40 0067  02.08.2006

@<TRIPOS>MOLECULE
ASD01410695
  81   86    0    0    0
SMALL
NO_CHARGES


@<TRIPOS>ATOM
   1 C1            -0.0178     1.4615     0.0101 C.3     
   2 N2             0.0021    -0.0041     0.0020 N.am    
   3 C3             0.0242    -0.7495     1.2621 C.3     
   4 C4             1.2889    -0.4124     2.0482 C.3     
   5 O5             1.7400    -1.5637     2.7688 O.3     
   6 C6             2.1653    -1.2625     4.0989 C.3     
   7 C7             3.0380    -2.3787     4.6561 C.3     
   8 N8             4.1961    -2.6271     3.7559 N.am    
   9 C9             4.9775    -1.5352     3.1641 C.3     
  10 S10           -0.0067    -0.8253    -1.4389 S.o2    
  11 O11            0.4561     0.0828    -2.4294 O.2     
  12 N12            1.1674    -2.0011    -1.2846 N.am    
  13 O13           -1.2556    -1.5011    -1.5120 O.2     
  14 C14            1.2328    -2.9647    -2.2593 C.2     
  15 O15            0.4878    -2.9685    -3.2255 O.2     
  16 C16            2.2668    -4.0069    -2.0525 C.ar    
  17 C17            2.3582    -5.1014    -2.9113 C.ar    
  18 C18            3.2840    -6.0979    -2.7274 C.ar    
  19 C19            4.1473    -5.9685    -1.6273 C.ar    
  20 C20            4.0890    -4.8328    -0.7869 C.ar    
  21 C21            3.1482    -3.8337    -0.9797 C.ar    
  22 C22            5.1499    -6.7950    -1.0973 C.2     
  23 C23            5.7210    -6.1633    -0.0349 C.2     
  24 N24            5.0779    -4.9554     0.1568 N.pl3   
  25 C25            5.4680    -8.1707    -1.6301 C.3     
  26 C26            4.2287    -9.0608    -1.5164 C.3     
  27 C27            5.8869    -8.0649    -3.0979 C.3     
  28 C28            6.2093    -9.4596    -3.6381 C.3     
  29 C29            4.9700   -10.3496    -3.5243 C.3     
  30 C30            4.5512   -10.4555    -2.0565 C.3     
  31 C31            6.8471    -6.6588     0.7785 C.ar    
  32 C32            6.9526    -6.4052     2.1472 C.ar    
  33 C33            6.0589    -5.5520     2.8975 C.2     
  34 C34            5.3357    -4.5031     2.5488 C.2     
  35 C35            5.3502    -3.9308     1.1659 C.3     
  36 C36            4.4794    -3.9398     3.5767 C.2     
  37 O37            3.9660    -4.7317     4.3635 O.2     
  38 C38            7.8703    -7.3723     0.1352 C.ar    
  39 C39            8.9131    -7.9144     0.8526 C.ar    
  40 C40            8.9784    -7.7323     2.2296 C.ar    
  41 C41            8.0168    -6.9827     2.8709 C.ar    
  42 O42            9.9887    -8.2945     2.9434 O.3     
  43 C43           10.9499    -9.0605     2.2144 C.3     
  44 H44            1.0048     1.8388     0.0023 H       
  45 H45           -0.5450     1.8226    -0.8730 H       
  46 H46           -0.5280     1.8131     0.9069 H       
  47 H47           -0.8564    -0.4923     1.8487 H       
  48 H48            0.0093    -1.8188     1.0439 H       
  49 H49            2.0746    -0.0933     1.3642 H       
  50 H50            1.0783     0.3888     2.7574 H       
  51 H51            2.7097    -0.3198     4.1058 H       
  52 H52            1.2804    -1.1537     4.7354 H       
  53 H53            3.4060    -2.0933     5.6441 H       
  54 H54            2.4429    -3.2887     4.7445 H       
  55 H55            5.8003    -1.2749     3.8299 H       
  56 H56            5.3763    -1.8544     2.2012 H       
  57 H57            4.3363    -0.6654     3.0215 H       
  58 H58            1.7694    -1.9889    -0.5290 H       
  59 H59            1.6779    -5.1642    -3.7475 H       
  60 H60            3.3439    -6.9404    -3.3989 H       
  61 H61            3.1189    -2.9739    -0.3294 H       
  62 H62            6.2822    -8.6056    -1.0504 H       
  63 H63            3.9303    -9.1362    -0.4707 H       
  64 H64            3.4146    -8.6259    -2.0961 H       
  65 H65            5.0727    -7.6300    -3.6776 H       
  66 H66            6.7697    -7.4308    -3.1789 H       
  67 H67            6.5077    -9.3842    -4.6837 H       
  68 H68            7.0235    -9.8945    -3.0583 H       
  69 H69            4.1559    -9.9147    -4.1040 H       
  70 H70            5.1998   -11.3432    -3.9091 H       
  71 H71            5.3653   -10.8904    -1.4768 H       
  72 H72            3.6683   -11.0895    -1.9755 H       
  73 H73            5.9640    -5.8243     3.9392 H       
  74 H74            6.3292    -3.4927     0.9743 H       
  75 H75            4.5830    -3.1619     1.0858 H       
  76 H76            7.8734    -7.4764    -0.9392 H       
  77 H77            9.6784    -8.4830     0.3450 H       
  78 H78            8.0782    -6.8338     3.9386 H       
  79 H79           10.4495    -9.8888     1.7127 H       
  80 H80           11.4337    -8.4252     1.4725 H       
  81 H81           11.6996    -9.4518     2.9020 H       
@<TRIPOS>BOND
   1    1    2 1
   2    1   44 1
   3    1   45 1
   4    1   46 1
   5    2    3 1
   6    2   10 am
   7    3    4 1
   8    3   47 1
   9    3   48 1
  10    4    5 1
  11    4   49 1
  12    4   50 1
  13    5    6 1
  14    6    7 1
  15    6   51 1
  16    6   52 1
  17    7    8 1
  18    7   53 1
  19    7   54 1
  20    8    9 1
  21    8   36 am
  22    9   55 1
  23    9   56 1
  24    9   57 1
  25   10   11 2
  26   10   12 am
  27   10   13 2
  28   12   14 am
  29   12   58 1
  30   14   15 2
  31   14   16 1
  32   16   17 ar
  33   16   21 ar
  34   17   18 ar
  35   17   59 1
  36   18   19 ar
  37   18   60 1
  38   19   20 ar
  39   19   22 1
  40   20   21 ar
  41   20   24 1
  42   21   61 1
  43   22   23 2
  44   22   25 1
  45   23   24 1
  46   23   31 1
  47   24   35 1
  48   25   26 1
  49   25   27 1
  50   25   62 1
  51   26   30 1
  52   26   63 1
  53   26   64 1
  54   27   28 1
  55   27   65 1
  56   27   66 1
  57   28   29 1
  58   28   67 1
  59   28   68 1
  60   29   30 1
  61   29   69 1
  62   29   70 1
  63   30   71 1
  64   30   72 1
  65   31   32 ar
  66   31   38 ar
  67   32   33 1
  68   32   41 ar
  69   33   34 2
  70   33   73 1
  71   34   35 1
  72   34   36 1
  73   35   74 1
  74   35   75 1
  75   36   37 2
  76   38   39 ar
  77   38   76 1
  78   39   40 ar
  79   39   77 1
  80   40   41 ar
  81   40   42 1
  82   41   78 1
  83   42   43 1
  84   43   79 1
  85   43   80 1
  86   43   81 1

#	End of record

