#	Name: ASD04910354
#	Creating user name:	WinNT
#	Creation time:	15. 06. 2019 20:55

#	Modifying user name:	WinNT
#	Modification time:	15. 06. 2019 20:55

#	Program:	/corina/corina34_cracker 3.40 0067  02.08.2006

@<TRIPOS>MOLECULE
ASD04910354
  56   59    0    0    0
SMALL
NO_CHARGES


@<TRIPOS>ATOM
   1 C1             1.2641     1.5774     1.9515 C.2     
   2 C2             1.0938     0.1047     1.6807 C.3     
   3 C3             2.4663    -0.5359     1.4640 C.3     
   4 O4             2.3696     2.0646     1.9693 O.2     
   5 O5             0.1871     2.3489     2.1674 O.3     
   6 C6             3.3818    -2.7412     0.9784 C.2     
   7 C7             3.2148    -4.1860     0.7127 C.ar    
   8 C8             4.3322    -4.9900     0.4821 C.ar    
   9 C9             4.1694    -6.3375     0.2353 C.ar    
  10 C10            2.9021    -6.8922     0.2156 C.ar    
  11 C11            1.7903    -6.1008     0.4435 C.ar    
  12 C12            1.9395    -4.7530     0.6972 C.ar    
  13 O13            4.4940    -2.2511     0.9963 O.2     
  14 N14            2.3008    -1.9675     1.2007 N.am    
  15 C15            2.7318    -8.3648    -0.0556 C.3     
  16 O16            1.6359    -8.8669     0.7117 O.3     
  17 C17            1.7747   -10.1089     1.2465 C.ar    
  18 C18            2.8895   -10.8756     0.9393 C.ar    
  19 C19            3.0312   -12.1370     1.4826 C.ar    
  20 C20            2.0579   -12.6381     2.3364 C.ar    
  21 C21            0.9425   -11.8706     2.6435 C.ar    
  22 C22            0.8044   -10.6072     2.1039 C.ar    
  23 N23            2.2011   -13.9200     2.8883 N.pl3   
  24 N24            3.2693   -14.7986     2.6660 N.2     
  25 C25            3.0482   -15.8927     3.3497 C.2     
  26 C26            1.8339   -15.7469     4.0288 C.2     
  27 C27            1.3356   -14.5236     3.7335 C.2     
  28 C28            1.1963   -16.7688     4.9344 C.3     
  29 F29            2.0091   -17.9056     4.9999 F       
  30 F30            1.0470   -16.2278     6.2158 F       
  31 F31           -0.0592   -17.1219     4.4280 F       
  32 C32            2.4530    -8.5802    -1.5445 C.3     
  33 C33            2.2491   -10.0187    -2.0242 C.3     
  34 C34            1.0563    -9.0644    -1.9389 C.3     
  35 H35            0.6031    -0.3669     2.5321 H       
  36 H36            0.4838    -0.0324     0.7879 H       
  37 H37            2.9570    -0.0643     0.6126 H       
  38 H38            3.0763    -0.3988     2.3568 H       
  39 H39            0.3463     3.2876     2.3368 H       
  40 H40            5.3219    -4.5580     0.4965 H       
  41 H41            5.0332    -6.9607     0.0567 H       
  42 H42            0.8037    -6.5399     0.4267 H       
  43 H43            1.0711    -4.1371     0.8793 H       
  44 H44            1.4132    -2.3586     1.1864 H       
  45 H45            3.6433    -8.8934     0.2235 H       
  46 H46            3.6464   -10.4858     0.2748 H       
  47 H47            3.8988   -12.7338     1.2431 H       
  48 H48            0.1851   -12.2600     3.3077 H       
  49 H49           -0.0610   -10.0083     2.3462 H       
  50 H50            3.6923   -16.7590     3.3835 H       
  51 H51            0.4113   -14.1059     4.1041 H       
  52 H52            2.9568    -7.8905    -2.2217 H       
  53 H53            2.6184   -10.2753    -3.0171 H       
  54 H54            2.3136   -10.8116    -1.2790 H       
  55 H55            0.3360    -9.2294    -1.1376 H       
  56 H56            0.6408    -8.6931    -2.8757 H       
@<TRIPOS>BOND
   1    1    2 1
   2    1    4 2
   3    1    5 1
   4    2    3 1
   5    2   35 1
   6    2   36 1
   7    3   14 1
   8    3   37 1
   9    3   38 1
  10    5   39 1
  11    6    7 1
  12    6   13 2
  13    6   14 am
  14    7    8 ar
  15    7   12 ar
  16    8    9 ar
  17    8   40 1
  18    9   10 ar
  19    9   41 1
  20   10   11 ar
  21   10   15 1
  22   11   12 ar
  23   11   42 1
  24   12   43 1
  25   14   44 1
  26   15   16 1
  27   15   32 1
  28   15   45 1
  29   16   17 1
  30   17   18 ar
  31   17   22 ar
  32   18   19 ar
  33   18   46 1
  34   19   20 ar
  35   19   47 1
  36   20   21 ar
  37   20   23 1
  38   21   22 ar
  39   21   48 1
  40   22   49 1
  41   23   24 1
  42   23   27 1
  43   24   25 2
  44   25   26 1
  45   25   50 1
  46   26   27 2
  47   26   28 1
  48   27   51 1
  49   28   29 1
  50   28   30 1
  51   28   31 1
  52   32   33 1
  53   32   34 1
  54   32   52 1
  55   33   34 1
  56   33   53 1
  57   33   54 1
  58   34   55 1
  59   34   56 1

#	End of record

