#	Name: ASD03930060
#	Creating user name:	WinNT
#	Creation time:	15. 06. 2019 20:47

#	Modifying user name:	WinNT
#	Modification time:	15. 06. 2019 20:47

#	Program:	/corina/corina34_cracker 3.40 0067  02.08.2006

@<TRIPOS>MOLECULE
ASD03930060
  35   37    0    0    0
SMALL
NO_CHARGES


@<TRIPOS>ATOM
   1 C1            -0.0166     1.3724     0.0096 C.ar    
   2 C2             0.0021    -0.0041     0.0020 C.ar    
   3 C3             1.1986    -0.7089    -0.0021 C.ar    
   4 C4             2.3924    -0.0478     0.0004 C.ar    
   5 C5             2.3807     1.3635    -0.0152 C.ar    
   6 C6             1.1927     2.0770     0.0018 C.ar    
   7 C7             3.6934    -0.7975     0.0507 C.3     
   8 N8             4.7877    -0.0938    -0.6240 N.am    
   9 S9             5.1672     1.4617    -0.1395 S.o2    
  10 C10            3.5638     2.2373    -0.0701 C.2     
  11 S11            1.5458     3.7990     0.0059 S.3     
  12 C12            3.2774     3.5173    -0.0560 C.2     
  13 O13            5.6512     1.3792     1.1940 O.2     
  14 O14            5.8818     2.0706    -1.2063 O.2     
  15 C15            5.5365    -0.7416    -1.7037 C.3     
  16 C16            4.7957    -0.5444    -3.0278 C.3     
  17 N17            5.5466    -1.1939    -4.1105 N.3     
  18 C18            5.5673    -2.6523    -3.9355 C.3     
  19 C19            4.9987    -0.8290    -5.4237 C.3     
  20 H20           -0.9566     1.9042     0.0169 H       
  21 H21           -0.9319    -0.5463    -0.0004 H       
  22 H22            1.1843    -1.7888    -0.0070 H       
  23 H23            3.9677    -0.9542     1.0939 H       
  24 H24            3.5566    -1.7695    -0.4232 H       
  25 H25            4.0178     4.3032    -0.0789 H       
  26 H26            6.5299    -0.2985    -1.7736 H       
  27 H27            5.6280    -1.8073    -1.4939 H       
  28 H28            3.8023    -0.9875    -2.9579 H       
  29 H29            4.7042     0.5213    -3.2377 H       
  30 H30            4.5461    -3.0334    -3.9409 H       
  31 H31            6.1295    -3.1081    -4.7505 H       
  32 H32            6.0415    -2.8976    -2.9852 H       
  33 H33            5.0596     0.2513    -5.5554 H       
  34 H34            5.5730    -1.3235    -6.2072 H       
  35 H35            3.9569    -1.1441    -5.4830 H       
@<TRIPOS>BOND
   1    1    2 ar
   2    1    6 ar
   3    1   20 1
   4    2    3 ar
   5    2   21 1
   6    3    4 ar
   7    3   22 1
   8    4    5 ar
   9    4    7 1
  10    5    6 ar
  11    5   10 1
  12    6   11 1
  13    7    8 1
  14    7   23 1
  15    7   24 1
  16    8    9 am
  17    8   15 1
  18    9   10 1
  19    9   13 2
  20    9   14 2
  21   10   12 2
  22   11   12 1
  23   12   25 1
  24   15   16 1
  25   15   26 1
  26   15   27 1
  27   16   17 1
  28   16   28 1
  29   16   29 1
  30   17   18 1
  31   17   19 1
  32   18   30 1
  33   18   31 1
  34   18   32 1
  35   19   33 1
  36   19   34 1
  37   19   35 1

#	End of record

