#	Name: ASD01940411
#	Creating user name:	WinNT
#	Creation time:	15. 06. 2019 20:12

#	Modifying user name:	WinNT
#	Modification time:	15. 06. 2019 20:12

#	Program:	/corina/corina34_cracker 3.40 0067  02.08.2006

@<TRIPOS>MOLECULE
ASD01940411
  57   60    0    0    0
SMALL
NO_CHARGES


@<TRIPOS>ATOM
   1 C1            -0.1995     1.4235    -1.7109 C.3     
   2 N2            -0.2072     0.0819    -2.3079 N.3     
   3 C3             0.3178    -0.9193    -1.3707 C.3     
   4 C4             1.7714    -0.5860    -1.0275 C.3     
   5 C5             1.8357     0.8098    -0.4012 C.3     
   6 C6             1.2387     1.8268    -1.3779 C.3     
   7 N7             1.2440     3.1566    -0.7631 N.am    
   8 C8             1.2523     4.2580    -1.5398 C.2     
   9 C9             1.2575     5.5903    -0.9239 C.2     
  10 O10            1.2555     4.1479    -2.7517 O.2     
  11 C11            2.1925     7.4808    -0.0414 C.2     
  12 C12            2.4331     6.2721    -0.6081 C.2     
  13 C13            0.1013     6.2744    -0.6147 C.2     
  14 S14            0.4741     7.7838     0.0883 S.3     
  15 N15           -1.1729     5.8064    -0.8413 N.pl3   
  16 C16           -2.2749     6.6361    -0.6070 C.ar    
  17 C17           -3.4098     6.1283     0.0173 C.ar    
  18 C18           -2.2361     7.9692    -0.9918 C.ar    
  19 C19           -3.3256     8.7865    -0.7588 C.ar    
  20 C20           -4.4546     8.2787    -0.1423 C.ar    
  21 C21           -4.4962     6.9516     0.2474 C.ar    
  22 C22            3.8331     5.7540    -0.8665 C.3     
  23 C23            3.2885     8.3724     0.3902 C.2     
  24 C24            4.4806     6.5449    -2.0065 C.3     
  25 N25            4.3183     8.5021    -0.4768 N.am    
  26 C26            4.1651     8.0323    -1.8452 C.3     
  27 C27            5.9963     6.3393    -1.9722 C.3     
  28 C28            3.9308     6.0502    -3.3459 C.3     
  29 O29            3.2660     8.9543     1.4593 O.2     
  30 F30           -3.4502     4.8326     0.3978 F       
  31 I31           -6.1026     9.5233     0.2094 I       
  32 H32           -0.6227     2.1378    -2.4172 H       
  33 H33           -0.7958     1.4185    -0.7985 H       
  34 H34           -1.1325    -0.1682    -2.6233 H       
  35 H35           -0.2810    -0.9134    -0.4599 H       
  36 H36            0.2703    -1.9067    -1.8299 H       
  37 H37            2.1559    -1.3205    -0.3198 H       
  38 H38            2.3734    -0.6053    -1.9360 H       
  39 H39            1.2656     0.8188     0.5277 H       
  40 H40            2.8741     1.0690    -0.1949 H       
  41 H41            1.8324     1.8455    -2.2918 H       
  42 H42            1.2414     3.2443     0.2029 H       
  43 H43           -1.3071     4.9014    -1.1635 H       
  44 H44           -1.3549     8.3675    -1.4726 H       
  45 H45           -3.2953     9.8237    -1.0582 H       
  46 H46           -5.3779     6.5588     0.7320 H       
  47 H47            4.4326     5.8650     0.0370 H       
  48 H48            3.7843     4.6999    -1.1395 H       
  49 H49            5.1521     8.9055    -0.1888 H       
  50 H50            4.8330     8.6043    -2.4892 H       
  51 H51            3.1378     8.2094    -2.1637 H       
  52 H52            6.2220     5.2796    -2.0909 H       
  53 H53            6.4578     6.9022    -2.7836 H       
  54 H54            6.3890     6.6898    -1.0177 H       
  55 H55            2.8506     6.1945    -3.3708 H       
  56 H56            4.3913     6.6129    -4.1579 H       
  57 H57            4.1586     4.9908    -3.4631 H       
@<TRIPOS>BOND
   1    1    2 1
   2    1    6 1
   3    1   32 1
   4    1   33 1
   5    2    3 1
   6    2   34 1
   7    3    4 1
   8    3   35 1
   9    3   36 1
  10    4    5 1
  11    4   37 1
  12    4   38 1
  13    5    6 1
  14    5   39 1
  15    5   40 1
  16    6    7 1
  17    6   41 1
  18    7    8 am
  19    7   42 1
  20    8    9 1
  21    8   10 2
  22    9   13 2
  23    9   12 1
  24   11   12 2
  25   11   14 1
  26   11   23 1
  27   12   22 1
  28   13   14 1
  29   13   15 1
  30   15   16 1
  31   15   43 1
  32   16   18 ar
  33   16   17 ar
  34   17   21 ar
  35   17   30 1
  36   18   19 ar
  37   18   44 1
  38   19   20 ar
  39   19   45 1
  40   20   21 ar
  41   20   31 1
  42   21   46 1
  43   22   24 1
  44   22   47 1
  45   22   48 1
  46   23   25 am
  47   23   29 2
  48   24   26 1
  49   24   27 1
  50   24   28 1
  51   25   26 1
  52   25   49 1
  53   26   50 1
  54   26   51 1
  55   27   52 1
  56   27   53 1
  57   27   54 1
  58   28   55 1
  59   28   56 1
  60   28   57 1

#	End of record

