#	Name: ASD09740424
#	Creating user name:	WinNT
#	Creation time:	15. 06. 2019 21:23

#	Modifying user name:	WinNT
#	Modification time:	15. 06. 2019 21:23

#	Program:	/corina/corina34_cracker 3.40 0067  02.08.2006

@<TRIPOS>MOLECULE
ASD09740424
  53   56    0    0    0
SMALL
NO_CHARGES


@<TRIPOS>ATOM
   1 N1            -0.0144     1.2567     0.0117 N.2     
   2 N2             0.0027    -0.0042     0.0020 N.2     
   3 C3             1.1342     1.8785    -0.0040 C.2     
   4 S4             2.4092     0.6589    -0.0358 S.3     
   5 C5             1.1671    -0.5945    -0.0231 C.2     
   6 C6             1.3310     3.3433     0.0030 C.ar    
   7 C7             0.2289     4.1936     0.0290 C.ar    
   8 C8             2.6241     3.8751    -0.0107 C.ar    
   9 C9             2.8135     5.2399    -0.0043 C.ar    
  10 C10            1.7222     6.0971     0.0158 C.ar    
  11 C11            0.4205     5.5748     0.0355 C.ar    
  12 O12            1.9144     7.4400     0.0221 O.3     
  13 C13            3.2625     7.9019     0.1283 C.3     
  14 C14            3.9009     7.9364    -1.2617 C.3     
  15 C15            3.2738     9.3087     0.7297 C.3     
  16 C16           -0.7075     6.4567     0.0563 C.1     
  17 N17           -1.6024     7.1563     0.0727 N.1     
  18 C18            1.4030    -2.0537    -0.0382 C.ar    
  19 C19            0.3204    -2.9377    -0.0256 C.ar    
  20 C20            0.5473    -4.2986    -0.0403 C.ar    
  21 C21            1.8458    -4.7831    -0.0677 C.ar    
  22 C22            2.9199    -3.9128    -0.0804 C.ar    
  23 C23            2.7062    -2.5501    -0.0709 C.ar    
  24 C24           -1.1682    -2.6657     0.0033 C.3     
  25 C25           -1.8289    -3.9901    -0.4348 C.3     
  26 C26           -0.7737    -5.0381    -0.0219 C.3     
  27 N27           -1.0562    -5.5406     1.3249 N.am    
  28 C28           -0.6196    -6.7611     1.6941 C.2     
  29 O29           -0.8793    -7.2229     2.9318 O.3     
  30 C30           -0.3784    -8.5456     3.2604 C.3     
  31 O31            0.0084    -7.4446     0.9099 O.2     
  32 H32           -0.7707     3.7850     0.0438 H       
  33 H33            3.4777     3.2136    -0.0260 H       
  34 H34            3.8150     5.6441    -0.0146 H       
  35 H35            3.8281     7.2274     0.7712 H       
  36 H36            3.3353     8.6109    -1.9046 H       
  37 H37            4.9292     8.2887    -1.1807 H       
  38 H38            3.8929     6.9342    -1.6902 H       
  39 H39            2.8190     9.2841     1.7200 H       
  40 H40            4.3021     9.6610     0.8108 H       
  41 H41            2.7082     9.9832     0.0869 H       
  42 H42            2.0197    -5.8489    -0.0789 H       
  43 H43            3.9277    -4.3003    -0.1017 H       
  44 H44            3.5450    -1.8699    -0.0808 H       
  45 H45           -1.4847    -2.4006     1.0121 H       
  46 H46           -1.4206    -1.8679    -0.6951 H       
  47 H47           -2.7651    -4.1515     0.0995 H       
  48 H48           -1.9890    -4.0053    -1.5129 H       
  49 H49           -0.7569    -5.8602    -0.7374 H       
  50 H50           -1.5575    -4.9950     1.9509 H       
  51 H51           -0.8104    -9.2776     2.5781 H       
  52 H52            0.7074    -8.5569     3.1654 H       
  53 H53           -0.6561    -8.7952     4.2845 H       
@<TRIPOS>BOND
   1    1    2 1
   2    1    3 2
   3    2    5 2
   4    3    4 1
   5    3    6 1
   6    4    5 1
   7    5   18 1
   8    6    7 ar
   9    6    8 ar
  10    7   11 ar
  11    7   32 1
  12    8    9 ar
  13    8   33 1
  14    9   10 ar
  15    9   34 1
  16   10   11 ar
  17   10   12 1
  18   11   16 1
  19   12   13 1
  20   13   14 1
  21   13   15 1
  22   13   35 1
  23   14   36 1
  24   14   37 1
  25   14   38 1
  26   15   39 1
  27   15   40 1
  28   15   41 1
  29   16   17 3
  30   18   19 ar
  31   18   23 ar
  32   19   20 ar
  33   19   24 1
  34   20   21 ar
  35   20   26 1
  36   21   22 ar
  37   21   42 1
  38   22   23 ar
  39   22   43 1
  40   23   44 1
  41   24   25 1
  42   24   45 1
  43   24   46 1
  44   25   26 1
  45   25   47 1
  46   25   48 1
  47   26   27 1
  48   26   49 1
  49   27   28 am
  50   27   50 1
  51   28   29 1
  52   28   31 2
  53   29   30 1
  54   30   51 1
  55   30   52 1
  56   30   53 1

#	End of record

