#	Name: ASD03330407
#	Creating user name:	WinNT
#	Creation time:	15. 06. 2019 20:37

#	Modifying user name:	WinNT
#	Modification time:	15. 06. 2019 20:37

#	Program:	/corina/corina34_cracker 3.40 0067  02.08.2006

@<TRIPOS>MOLECULE
ASD03330407
  61   63    0    0    0
SMALL
NO_CHARGES


@<TRIPOS>ATOM
   1 C1             0.5972     1.5910     0.4729 C.ar    
   2 C2             0.4641     0.1221     0.3592 C.2     
   3 N3            -0.6281    -0.6069     0.7184 N.pl3   
   4 C4            -0.3492    -1.9147     0.4571 C.2     
   5 C5             0.9063    -1.9628    -0.0582 C.2     
   6 N6             1.3777    -0.6964    -0.1107 N.2     
   7 C7             1.6237    -3.1760    -0.4881 C.2     
   8 N8             2.8730    -3.0799    -0.9844 N.am    
   9 C9            -0.2643     2.3095     1.3023 C.ar    
  10 O10            1.0883    -4.2641    -0.3951 O.2     
  11 C11            3.5863    -4.2860    -1.4118 C.3     
  12 C12            3.1977    -4.6248    -2.8523 C.3     
  13 C13            5.0719    -4.0447    -1.3357 C.2     
  14 C14            3.4662    -3.4157    -3.7507 C.3     
  15 N15            5.9117    -5.0755    -1.1156 N.am    
  16 C16            4.0273    -5.8151    -3.3379 C.3     
  17 C17           -1.8919    -0.1267     1.2828 C.3     
  18 C18           -2.9518    -1.2217     1.1189 C.3     
  19 C19           -2.4069    -2.5500     1.6514 C.3     
  20 C20           -1.3004    -3.0550     0.7154 C.3     
  21 C21            1.7111    -4.9822    -2.9090 C.3     
  22 O22            5.5117    -2.9227    -1.4725 O.2     
  23 C23           -0.1355     3.6810     1.4047 C.ar    
  24 C24            0.8485     4.3427     0.6837 C.ar    
  25 C25            1.7052     3.6320    -0.1410 C.ar    
  26 C26            1.5886     2.2615    -0.2446 C.ar    
  27 F27            0.9710     5.6842     0.7862 F       
  28 F28           -0.9686     4.3790     2.2072 F       
  29 C29            7.3435    -4.8272    -0.9302 C.3     
  30 C30            7.9573    -5.9665    -0.1140 C.3     
  31 C31            8.0290    -4.7514    -2.2959 C.3     
  32 H32            3.3000    -2.2120    -1.0586 H       
  33 H33           -1.0305     1.7946     1.8628 H       
  34 H34            3.3192    -5.1167    -0.7585 H       
  35 H35            4.5253    -3.1611    -3.7103 H       
  36 H36            3.1894    -3.6571    -4.7770 H       
  37 H37            2.8752    -2.5677    -3.4048 H       
  38 H38            5.5681    -5.9819    -1.0799 H       
  39 H39            3.7961    -6.6907    -2.7312 H       
  40 H40            3.7890    -6.0227    -4.3810 H       
  41 H41            5.0878    -5.5800    -3.2473 H       
  42 H42           -1.7580     0.0969     2.3411 H       
  43 H43           -2.2100     0.7720     0.7544 H       
  44 H44           -3.8467    -0.9467     1.6771 H       
  45 H45           -3.2020    -1.3292     0.0635 H       
  46 H46           -1.9984    -2.4013     2.6509 H       
  47 H47           -3.2121    -3.2836     1.6921 H       
  48 H48           -1.7380    -3.3895    -0.2252 H       
  49 H49           -0.7667    -3.8797     1.1877 H       
  50 H50            1.1201    -4.1341    -2.5631 H       
  51 H51            1.4343    -5.2235    -3.9353 H       
  52 H52            1.5199    -5.8435    -2.2690 H       
  53 H53            2.4689     4.1516    -0.7006 H       
  54 H54            2.2574     1.7092    -0.8880 H       
  55 H55            7.4832    -3.8847    -0.4007 H       
  56 H56            7.8176    -6.9090    -0.6435 H       
  57 H57            9.0226    -5.7817     0.0239 H       
  58 H58            7.4689    -6.0205     0.8590 H       
  59 H59            7.8893    -5.6938    -2.8254 H       
  60 H60            7.5918    -3.9397    -2.8774 H       
  61 H61            9.0944    -4.5666    -2.1579 H       
@<TRIPOS>BOND
   1    1    2 1
   2    1    9 ar
   3    1   26 ar
   4    2    3 1
   5    2    6 2
   6    3    4 1
   7    3   17 1
   8    4    5 2
   9    4   20 1
  10    5    6 1
  11    5    7 1
  12    7    8 am
  13    7   10 2
  14    8   11 1
  15    8   32 1
  16    9   23 ar
  17    9   33 1
  18   11   12 1
  19   11   13 1
  20   11   34 1
  21   12   14 1
  22   12   16 1
  23   12   21 1
  24   13   15 am
  25   13   22 2
  26   14   35 1
  27   14   36 1
  28   14   37 1
  29   15   29 1
  30   15   38 1
  31   16   39 1
  32   16   40 1
  33   16   41 1
  34   17   18 1
  35   17   42 1
  36   17   43 1
  37   18   19 1
  38   18   44 1
  39   18   45 1
  40   19   20 1
  41   19   46 1
  42   19   47 1
  43   20   48 1
  44   20   49 1
  45   21   50 1
  46   21   51 1
  47   21   52 1
  48   23   24 ar
  49   23   28 1
  50   24   25 ar
  51   24   27 1
  52   25   26 ar
  53   25   53 1
  54   26   54 1
  55   29   30 1
  56   29   31 1
  57   29   55 1
  58   30   56 1
  59   30   57 1
  60   30   58 1
  61   31   59 1
  62   31   60 1
  63   31   61 1

#	End of record

