#	Name: ASD00311370
#	Creating user name:	WinNT
#	Creation time:	15. 06. 2019 18:34

#	Modifying user name:	WinNT
#	Modification time:	15. 06. 2019 18:34

#	Program:	/corina/corina34_cracker 3.40 0067  02.08.2006

@<TRIPOS>MOLECULE
ASD00311370
  34   37    0    0    0
SMALL
NO_CHARGES


@<TRIPOS>ATOM
   1 C1            -0.0171     1.3774    -0.0115 C.2     
   2 C2             0.0015    -0.0039    -0.0247 C.2     
   3 C3             1.2576    -0.6764    -0.0696 C.2     
   4 C4             2.4300     0.0675    -0.0992 C.2     
   5 C5             2.3560     1.4754    -0.0841 C.2     
   6 N6             1.1638     2.0901    -0.0416 N.am    
   7 C7            -1.3434    -0.5755     0.0118 C.2     
   8 C8            -2.3228     0.3264     0.0503 C.2     
   9 S9            -1.6786     1.9562     0.0524 S.3     
  10 O10            3.3803     2.1378    -0.1094 O.2     
  11 C11            3.7455    -0.6116    -0.1455 C.ar    
  12 C12            4.5675    -0.4701    -1.2634 C.ar    
  13 C13            5.7921    -1.1048    -1.3005 C.ar    
  14 C14            6.2049    -1.8807    -0.2320 C.ar    
  15 C15            5.3938    -2.0253     0.8793 C.ar    
  16 C16            4.1697    -1.3905     0.9309 C.ar    
  17 O17            1.3073    -2.0289    -0.0830 O.3     
  18 C18           -1.5956    -2.0340     0.0064 C.ar    
  19 C19           -2.4715    -2.5976     0.9373 C.ar    
  20 N20           -0.9933    -2.8126    -0.8887 N.ar    
  21 N21           -2.6926    -3.8979     0.9271 N.ar    
  22 C22           -2.0866    -4.6673     0.0378 C.ar    
  23 C23           -1.2224    -4.1136    -0.8893 C.ar    
  24 H24            1.1316     3.0596    -0.0319 H       
  25 H25           -3.3751     0.0851     0.0807 H       
  26 H26            4.2461     0.1348    -2.0983 H       
  27 H27            6.4295    -0.9960    -2.1655 H       
  28 H28            7.1641    -2.3759    -0.2658 H       
  29 H29            5.7211    -2.6329     1.7100 H       
  30 H30            3.5393    -1.5005     1.8009 H       
  31 H31            2.2041    -2.3893    -0.1141 H       
  32 H32           -2.9663    -1.9702     1.6639 H       
  33 H33           -2.2706    -5.7315     0.0331 H       
  34 H34           -0.7341    -4.7462    -1.6157 H       
@<TRIPOS>BOND
   1    1    2 2
   2    1    6 1
   3    1    9 1
   4    2    3 1
   5    2    7 1
   6    3    4 2
   7    3   17 1
   8    4    5 1
   9    4   11 1
  10    5    6 am
  11    5   10 2
  12    6   24 1
  13    7    8 2
  14    7   18 1
  15    8    9 1
  16    8   25 1
  17   11   12 ar
  18   11   16 ar
  19   12   13 ar
  20   12   26 1
  21   13   14 ar
  22   13   27 1
  23   14   15 ar
  24   14   28 1
  25   15   16 ar
  26   15   29 1
  27   16   30 1
  28   17   31 1
  29   18   19 ar
  30   18   20 ar
  31   19   21 ar
  32   19   32 1
  33   20   23 ar
  34   21   22 ar
  35   22   23 ar
  36   22   33 1
  37   23   34 1

#	End of record

