#	Name: ASD09530001
#	Creating user name:	WinNT
#	Creation time:	15. 06. 2019 21:22

#	Modifying user name:	WinNT
#	Modification time:	15. 06. 2019 21:22

#	Program:	/corina/corina34_cracker 3.40 0067  02.08.2006

@<TRIPOS>MOLECULE
ASD09530001
  42   44    0    0    0
SMALL
NO_CHARGES


@<TRIPOS>ATOM
   1 N1            -0.0179     1.4663     0.0101 N.am    
   2 C2             0.0021    -0.0041     0.0020 C.3     
   3 C3             1.0632    -0.4820     0.9553 C.2     
   4 N4             1.9887     0.3246     1.4766 N.am    
   5 C5             2.0413     1.7653     1.2695 C.3     
   6 C6             1.2815     2.1593     0.0014 C.3     
   7 C7            -1.1782     2.1518     0.0194 C.2     
   8 O8            -1.1660     3.3676     0.0259 O.2     
   9 N9            -2.3521     1.4897     0.0214 N.am    
  10 O10            1.0774    -1.6547     1.2644 O.2     
  11 C11           -3.6134     2.2349     0.0315 C.3     
  12 C12           -4.7038     1.3850    -0.5684 C.ar    
  13 C13           -5.6446     1.9566    -1.4044 C.ar    
  14 C14           -6.6448     1.1770    -1.9546 C.ar    
  15 C15           -6.7039    -0.1742    -1.6692 C.ar    
  16 C16           -5.7625    -0.7460    -0.8339 C.ar    
  17 C17           -4.7598     0.0327    -0.2871 C.ar    
  18 C18           -3.9761     2.5893     1.4506 C.ar    
  19 C19           -4.5123     3.8307     1.7375 C.ar    
  20 C20           -4.8449     4.1558     3.0392 C.ar    
  21 C21           -4.6419     3.2394     4.0540 C.ar    
  22 C22           -4.1066     1.9976     3.7670 C.ar    
  23 C23           -3.7779     1.6709     2.4646 C.ar    
  24 H24           -0.9697    -0.3841     0.3171 H       
  25 H25            0.2270    -0.3606    -1.0032 H       
  26 H26            2.6748    -0.0764     2.0329 H       
  27 H27            1.5933     2.2676     2.1268 H       
  28 H28            3.0817     2.0765     1.1756 H       
  29 H29            1.8523     1.8596    -0.8775 H       
  30 H30            1.1231     3.2376    -0.0124 H       
  31 H31           -2.3619     0.5197     0.0162 H       
  32 H32           -3.5008     3.1476    -0.5535 H       
  33 H33           -5.5985     3.0123    -1.6274 H       
  34 H34           -7.3803     1.6238    -2.6073 H       
  35 H35           -7.4858    -0.7832    -2.0985 H       
  36 H36           -5.8089    -1.8017    -0.6106 H       
  37 H37           -4.0221    -0.4147     0.3626 H       
  38 H38           -4.6709     4.5467     0.9447 H       
  39 H39           -5.2631     5.1260     3.2635 H       
  40 H40           -4.9011     3.4937     5.0711 H       
  41 H41           -3.9476     1.2817     4.5598 H       
  42 H42           -3.3632     0.6994     2.2398 H       
@<TRIPOS>BOND
   1    1    2 1
   2    1    6 1
   3    1    7 am
   4    2    3 1
   5    2   24 1
   6    2   25 1
   7    3    4 am
   8    3   10 2
   9    4    5 1
  10    4   26 1
  11    5    6 1
  12    5   27 1
  13    5   28 1
  14    6   29 1
  15    6   30 1
  16    7    8 2
  17    7    9 am
  18    9   11 1
  19    9   31 1
  20   11   12 1
  21   11   18 1
  22   11   32 1
  23   12   13 ar
  24   12   17 ar
  25   13   14 ar
  26   13   33 1
  27   14   15 ar
  28   14   34 1
  29   15   16 ar
  30   15   35 1
  31   16   17 ar
  32   16   36 1
  33   17   37 1
  34   18   19 ar
  35   18   23 ar
  36   19   20 ar
  37   19   38 1
  38   20   21 ar
  39   20   39 1
  40   21   22 ar
  41   21   40 1
  42   22   23 ar
  43   22   41 1
  44   23   42 1

#	End of record

