#	Name: ASD03240590
#	Creating user name:	WinNT
#	Creation time:	15. 06. 2019 20:35

#	Modifying user name:	WinNT
#	Modification time:	15. 06. 2019 20:35

#	Program:	/corina/corina34_cracker 3.40 0067  02.08.2006

@<TRIPOS>MOLECULE
ASD03240590
  60   66    0    0    0
SMALL
NO_CHARGES


@<TRIPOS>ATOM
   1 C1            -0.1148     1.8412    -0.0930 C.ar    
   2 C2            -0.2379     0.4681    -0.0391 C.ar    
   3 N3             0.8276    -0.3079     0.0210 N.ar    
   4 C4             2.0570     0.1895     0.0328 C.ar    
   5 C5             2.2558     1.5671    -0.0339 C.ar    
   6 C6             1.1526     2.4089    -0.0912 C.ar    
   7 N7             3.1391    -0.6805     0.1334 N.pl3   
   8 C8             3.9887    -0.6324     1.2353 C.ar    
   9 C9             4.7369     0.5180     1.5067 C.ar    
  10 C10            4.6545     1.6885     0.6054 C.2     
  11 N11            3.5438     2.1203    -0.0620 N.pl3   
  12 C12            4.0949    -1.7328     2.0755 C.ar    
  13 C13            4.9271    -1.6841     3.1775 C.ar    
  14 C14            5.6587    -0.5419     3.4538 C.ar    
  15 C15            5.5688     0.5585     2.6253 C.ar    
  16 N16            5.6631     2.4869     0.3199 N.2     
  17 C17            5.2571     3.4439    -0.5305 C.2     
  18 C18            3.9114     3.2331    -0.7917 C.2     
  19 C19            3.0456     4.0379    -1.6742 C.ar    
  20 C20            2.9359     5.4176    -1.4820 C.ar    
  21 C21            2.3356     3.4250    -2.7100 C.ar    
  22 C22            1.5280     4.1838    -3.5311 C.ar    
  23 C23            1.4199     5.5488    -3.3311 C.ar    
  24 C24            2.1245     6.1635    -2.3109 C.ar    
  25 C25            6.0931     4.5268    -1.0869 C.2     
  26 C26            0.5353     6.3709    -4.2326 C.3     
  27 N27           -0.4753     5.5645    -4.9300 N.3     
  28 C28           -0.0388     7.6261    -3.5545 C.3     
  29 C29            0.2145     8.3625    -4.8805 C.3     
  30 C30            1.3128     7.3203    -5.1595 C.3     
  31 N31            6.7960     5.4546    -0.3757 N.pl3   
  32 N32            7.4476     6.2908    -1.2907 N.2     
  33 C33            7.1577     5.8942    -2.5037 C.2     
  34 C34            6.3144     4.7863    -2.4220 C.2     
  35 C35            6.8579     5.5580     1.0843 C.3     
  36 H36           -0.9937     2.4671    -0.1406 H       
  37 H37           -1.2212     0.0216    -0.0457 H       
  38 H38            1.2776     3.4807    -0.1342 H       
  39 H39            3.3026    -1.3269    -0.5711 H       
  40 H40            3.5264    -2.6273     1.8677 H       
  41 H41            5.0070    -2.5427     3.8277 H       
  42 H42            6.3025    -0.5117     4.3205 H       
  43 H43            6.1405     1.4485     2.8431 H       
  44 H44            3.4850     5.8986    -0.6860 H       
  45 H45            2.4194     2.3598    -2.8674 H       
  46 H46            0.9790     3.7115    -4.3323 H       
  47 H47            2.0353     7.2293    -2.1608 H       
  48 H48           -0.0531     4.7664    -5.3805 H       
  49 H49           -1.2079     5.2776    -4.2983 H       
  50 H50           -1.0947     7.5394    -3.2979 H       
  51 H51            0.5699     7.9930    -2.7281 H       
  52 H52           -0.6229     8.3093    -5.5764 H       
  53 H53            0.5952     9.3756    -4.7515 H       
  54 H54            2.2916     7.6031    -4.7721 H       
  55 H55            1.3468     6.9890    -6.1974 H       
  56 H56            7.5154     6.3472    -3.4165 H       
  57 H57            5.9034     4.2353    -3.2550 H       
  58 H58            7.6289     4.8875     1.4637 H       
  59 H59            7.0972     6.5834     1.3661 H       
  60 H60            5.8934     5.2801     1.5094 H       
@<TRIPOS>BOND
   1    1    2 ar
   2    1    6 ar
   3    1   36 1
   4    2    3 ar
   5    2   37 1
   6    3    4 ar
   7    4    5 ar
   8    4    7 1
   9    5    6 ar
  10    5   11 1
  11    6   38 1
  12    7    8 1
  13    7   39 1
  14    8    9 ar
  15    8   12 ar
  16    9   10 1
  17    9   15 ar
  18   10   11 1
  19   10   16 2
  20   11   18 1
  21   12   13 ar
  22   12   40 1
  23   13   14 ar
  24   13   41 1
  25   14   15 ar
  26   14   42 1
  27   15   43 1
  28   16   17 1
  29   17   18 2
  30   17   25 1
  31   18   19 1
  32   19   20 ar
  33   19   21 ar
  34   20   24 ar
  35   20   44 1
  36   21   22 ar
  37   21   45 1
  38   22   23 ar
  39   22   46 1
  40   23   24 ar
  41   23   26 1
  42   24   47 1
  43   25   31 1
  44   25   34 2
  45   26   27 1
  46   26   28 1
  47   26   30 1
  48   27   48 1
  49   27   49 1
  50   28   29 1
  51   28   50 1
  52   28   51 1
  53   29   30 1
  54   29   52 1
  55   29   53 1
  56   30   54 1
  57   30   55 1
  58   31   32 1
  59   31   35 1
  60   32   33 2
  61   33   34 1
  62   33   56 1
  63   34   57 1
  64   35   58 1
  65   35   59 1
  66   35   60 1

#	End of record

