#	Name: ASD01410019
#	Creating user name:	WinNT
#	Creation time:	15. 06. 2019 19:16

#	Modifying user name:	WinNT
#	Modification time:	15. 06. 2019 19:16

#	Program:	/corina/corina34_cracker 3.40 0067  02.08.2006

@<TRIPOS>MOLECULE
ASD01410019
  33   34    0    0    0
SMALL
NO_CHARGES


@<TRIPOS>ATOM
   1 C1            -0.0268     1.4066    -0.0667 C.ar    
   2 C2            -0.0039     0.0234    -0.0688 C.ar    
   3 C3            -1.1879    -0.6880    -0.0485 C.ar    
   4 C4            -2.4004    -0.0144    -0.0259 C.ar    
   5 C5            -2.4212     1.3727    -0.0238 C.ar    
   6 C6            -1.2348     2.0803    -0.0384 C.ar    
   7 O7            -3.5664    -0.7125    -0.0064 O.3     
   8 C8            -4.7768     0.0468     0.0162 C.3     
   9 C9            -5.9571    -0.8900     0.0357 C.2     
  10 N10           -7.2103    -0.3945     0.0586 N.am    
  11 C11           -8.3011    -1.2550    -0.0366 C.ar    
  12 C12           -8.2236    -2.3948    -0.8250 C.ar    
  13 C13           -9.3062    -3.2466    -0.9181 C.ar    
  14 C14          -10.4755    -2.9728    -0.2275 C.ar    
  15 C15          -10.5711    -1.8460     0.5603 C.ar    
  16 C16           -9.4824    -0.9773     0.6687 C.ar    
  17 O17           -5.7793    -2.0896     0.0306 O.2     
  18 Br18           1.5955     2.3779    -0.0945 Br      
  19 C19           -9.5775     0.2293     1.5098 C.2     
  20 O20          -10.7486     0.5544     2.0917 O.3     
  21 O21           -8.5999     0.9310     1.6784 O.2     
  22 H22            0.9403    -0.5006    -0.0867 H       
  23 H23           -1.1696    -1.7678    -0.0505 H       
  24 H24           -3.3641     1.8990    -0.0066 H       
  25 H25           -1.2505     3.1602    -0.0365 H       
  26 H26           -4.7958     0.6737     0.9077 H       
  27 H27           -4.8273     0.6766    -0.8720 H       
  28 H28           -7.3525     0.5614     0.1415 H       
  29 H29           -7.3156    -2.6154    -1.3666 H       
  30 H30           -9.2412    -4.1318    -1.5334 H       
  31 H31          -11.3166    -3.6457    -0.3070 H       
  32 H32          -11.4851    -1.6370     1.0963 H       
  33 H33          -10.7620     1.3548     2.6342 H       
@<TRIPOS>BOND
   1    1    2 ar
   2    1   18 1
   3    1    6 ar
   4    2    3 ar
   5    2   22 1
   6    3    4 ar
   7    3   23 1
   8    4    5 ar
   9    4    7 1
  10    5    6 ar
  11    5   24 1
  12    6   25 1
  13    7    8 1
  14    8    9 1
  15    8   26 1
  16    8   27 1
  17    9   10 am
  18    9   17 2
  19   10   11 1
  20   10   28 1
  21   11   12 ar
  22   11   16 ar
  23   12   13 ar
  24   12   29 1
  25   13   14 ar
  26   13   30 1
  27   14   15 ar
  28   14   31 1
  29   15   16 ar
  30   15   32 1
  31   16   19 1
  32   19   20 1
  33   19   21 2
  34   20   33 1

#	End of record

