#	Name: ASD01811546
#	Creating user name:	WinNT
#	Creation time:	15. 06. 2019 19:26

#	Modifying user name:	WinNT
#	Modification time:	15. 06. 2019 19:26

#	Program:	/corina/corina34_cracker 3.40 0067  02.08.2006

@<TRIPOS>MOLECULE
ASD01811546
  37   37    0    0    0
SMALL
NO_CHARGES


@<TRIPOS>ATOM
   1 N1            -0.0178     1.4643     0.0101 N.am    
   2 C2             0.0021    -0.0041     0.0020 C.3     
   3 C3             0.7747    -0.4806    -1.2345 C.3     
   4 C4             2.0883     0.2677    -1.2953 C.2     
   5 C5             2.0586     1.7791    -1.2346 C.3     
   6 C6             1.2537     2.1990     0.0019 C.3     
   7 C7            -1.1897     2.1301     0.0193 C.2     
   8 O8            -2.2377     1.5153     0.0209 O.2     
   9 O9            -1.1990     3.4764     0.0267 O.3     
  10 O10            3.1350    -0.3270    -1.3895 O.2     
  11 C11            1.0424    -1.9832    -1.1273 C.3     
  12 C12           -0.0419    -0.1909    -2.4955 C.3     
  13 Br13           3.8932     2.4722    -1.0970 Br      
  14 C14           -2.4972     4.1266     0.0364 C.3     
  15 C15           -3.2702     3.7033     1.2870 C.3     
  16 C16           -2.3072     5.6448     0.0437 C.3     
  17 C17           -3.2821     3.7169    -1.2114 C.3     
  18 H18            0.4951    -0.3678     0.9035 H       
  19 H19           -1.0191    -0.3831    -0.0367 H       
  20 H20            1.5834     2.1732    -2.1330 H       
  21 H21            1.0565     3.2703    -0.0369 H       
  22 H22            1.8186     1.9618     0.9034 H       
  23 H23            0.0944    -2.5175    -1.0652 H       
  24 H24            1.5914    -2.3182    -2.0073 H       
  25 H25            1.6320    -2.1843    -0.2329 H       
  26 H26           -0.2226     0.8813    -2.5730 H       
  27 H27            0.5100    -0.5306    -3.3718 H       
  28 H28           -0.9950    -0.7168    -2.4399 H       
  29 H29           -2.7110     3.9952     2.1759 H       
  30 H30           -4.2448     4.1914     1.2943 H       
  31 H31           -3.4056     2.6218     1.2818 H       
  32 H32           -1.7565     5.9463    -0.8473 H       
  33 H33           -3.2818     6.1328     0.0510 H       
  34 H34           -1.7480     5.9366     0.9326 H       
  35 H35           -3.4175     2.6353    -1.2166 H       
  36 H36           -4.2567     4.2050    -1.2041 H       
  37 H37           -2.7314     4.0185    -2.1024 H       
@<TRIPOS>BOND
   1    1    2 1
   2    1    6 1
   3    1    7 am
   4    2    3 1
   5    2   18 1
   6    2   19 1
   7    3    4 1
   8    3   11 1
   9    3   12 1
  10    4    5 1
  11    4   10 2
  12    5    6 1
  13    5   13 1
  14    5   20 1
  15    6   21 1
  16    6   22 1
  17    7    8 2
  18    7    9 1
  19    9   14 1
  20   11   23 1
  21   11   24 1
  22   11   25 1
  23   12   26 1
  24   12   27 1
  25   12   28 1
  26   14   15 1
  27   14   17 1
  28   14   16 1
  29   15   29 1
  30   15   30 1
  31   15   31 1
  32   16   32 1
  33   16   33 1
  34   16   34 1
  35   17   35 1
  36   17   36 1
  37   17   37 1

#	End of record

