#	Name: ASD03082287
#	Creating user name:	WinNT
#	Creation time:	15. 06. 2019 20:27

#	Modifying user name:	WinNT
#	Modification time:	15. 06. 2019 20:27

#	Program:	/corina/corina34_cracker 3.40 0067  02.08.2006

@<TRIPOS>MOLECULE
ASD03082287
  45   48    0    0    0
SMALL
NO_CHARGES


@<TRIPOS>ATOM
   1 N1             0.7880     0.6022     0.4393 N.pl3   
   2 N2             1.0124    -0.7835     0.4799 N.2     
   3 C3             2.2826    -0.9571     0.7659 C.2     
   4 N4             2.8637     0.2352     0.9060 N.2     
   5 C5             1.9748     1.1885     0.7120 C.2     
   6 N6             2.9216    -2.1910     0.9014 N.pl3   
   7 C7             4.2755    -2.2431     1.2482 C.ar    
   8 C8             4.8411    -1.2190     1.9965 C.ar    
   9 C9             6.1803    -1.2720     2.3393 C.ar    
  10 C10            6.9577    -2.3465     1.9359 C.ar    
  11 C11            6.3944    -3.3694     1.1889 C.ar    
  12 C12            5.0541    -3.3217     0.8496 C.ar    
  13 C13            2.2313     2.6449     0.7799 C.ar    
  14 C14           -0.4796     1.2781     0.1521 C.3     
  15 C15            1.2339     3.5313     1.2056 C.ar    
  16 C16            1.5111     4.8806     1.2558 C.ar    
  17 N17            2.6974     5.3441     0.9097 N.ar    
  18 C18            3.6705     4.5438     0.5012 C.ar    
  19 C19            3.4755     3.1706     0.4268 C.ar    
  20 O20           -1.1017     0.6635    -0.9781 O.3     
  21 F21            8.2656    -2.3965     2.2706 F       
  22 C22           -1.4037     1.1664     1.3664 C.3     
  23 N23            4.9022     5.0837     0.1480 N.pl3   
  24 F24            7.1535    -4.4158     0.7965 F       
  25 F25            6.7309    -0.2760     3.0673 F       
  26 C26            5.9627     4.2139    -0.3668 C.3     
  27 C27            7.0856     4.8701    -1.1727 C.3     
  28 C28            7.3573     4.3623     0.2448 C.3     
  29 H29            2.4266    -3.0122     0.7549 H       
  30 H30            4.2359    -0.3815     2.3104 H       
  31 H31            4.6145    -4.1210     0.2714 H       
  32 H32           -0.2899     2.3293    -0.0646 H       
  33 H33            0.2598     3.1622     1.4906 H       
  34 H34            0.7459     5.5690     1.5829 H       
  35 H35            4.2712     2.5207     0.0936 H       
  36 H36           -1.3001    -0.2750    -0.8559 H       
  37 H37           -0.9292     1.6352     2.2284 H       
  38 H38           -2.3469     1.6693     1.1527 H       
  39 H39           -1.5934     0.1151     1.5831 H       
  40 H40            5.0594     6.0362     0.2426 H       
  41 H41            5.6473     3.2140    -0.6649 H       
  42 H42            7.5092     4.3017    -2.0007 H       
  43 H43            7.0353     5.9489    -1.3199 H       
  44 H44            7.4857     5.1071     1.0302 H       
  45 H45            7.9597     3.4599     0.3493 H       
@<TRIPOS>BOND
   1    1    2 1
   2    1    5 1
   3    1   14 1
   4    2    3 2
   5    3    4 1
   6    3    6 1
   7    4    5 2
   8    5   13 1
   9    6    7 1
  10    6   29 1
  11    7    8 ar
  12    7   12 ar
  13    8    9 ar
  14    8   30 1
  15    9   10 ar
  16    9   25 1
  17   10   11 ar
  18   10   21 1
  19   11   12 ar
  20   11   24 1
  21   12   31 1
  22   13   15 ar
  23   13   19 ar
  24   14   20 1
  25   14   22 1
  26   14   32 1
  27   15   16 ar
  28   15   33 1
  29   16   17 ar
  30   16   34 1
  31   17   18 ar
  32   18   19 ar
  33   18   23 1
  34   19   35 1
  35   20   36 1
  36   22   37 1
  37   22   38 1
  38   22   39 1
  39   23   26 1
  40   23   40 1
  41   26   27 1
  42   26   28 1
  43   26   41 1
  44   27   28 1
  45   27   42 1
  46   27   43 1
  47   28   44 1
  48   28   45 1

#	End of record

