#	Name: ASD00310324
#	Creating user name:	WinNT
#	Creation time:	15. 06. 2019 18:34

#	Modifying user name:	WinNT
#	Modification time:	15. 06. 2019 18:34

#	Program:	/corina/corina34_cracker 3.40 0067  02.08.2006

@<TRIPOS>MOLECULE
ASD00310324
  36   39    0    0    0
SMALL
NO_CHARGES


@<TRIPOS>ATOM
   1 N1            -0.0897     1.8026     0.1930 N.pl3   
   2 C2            -0.4352     2.7325     1.1041 C.2     
   3 C3             0.6915     3.3977     1.5375 C.2     
   4 C4             1.8278     2.8004     0.8070 C.ar    
   5 C5             3.1979     3.0314     0.8026 C.ar    
   6 C6             4.0191     2.2738    -0.0249 C.ar    
   7 C7             3.4639     1.2858    -0.8465 C.ar    
   8 C8             2.1071     1.0566    -0.8431 C.ar    
   9 C9             1.2735     1.8083    -0.0184 C.ar    
  10 C10            0.7482     4.4441     2.4914 C.2     
  11 O11           -0.2709     4.8408     3.0187 O.2     
  12 C12            5.4816     2.5126    -0.0375 C.ar    
  13 C13            5.9757     3.8145    -0.1410 C.ar    
  14 N14            6.3239     1.4871     0.0553 N.ar    
  15 N15            7.2765     4.0266    -0.1523 N.ar    
  16 C16            8.1188     3.0002    -0.0650 C.ar    
  17 C17            7.6253     1.6998     0.0440 C.ar    
  18 C18            9.5820     3.2391    -0.0782 C.ar    
  19 C19           10.0781     4.5378    -0.1819 C.ar    
  20 C20           11.4410     4.7540    -0.1931 C.ar    
  21 C21           12.3144     3.6851    -0.1018 C.ar    
  22 C22           11.8279     2.3942     0.0009 C.ar    
  23 C23           10.4669     2.1663     0.0189 C.ar    
  24 Cl24           4.4944     0.3431    -1.8775 Cl      
  25 H25           -0.7138     1.2073    -0.2509 H       
  26 H26           -1.4419     2.9277     1.4430 H       
  27 H27            3.6223     3.7950     1.4377 H       
  28 H28            1.6879     0.2925    -1.4809 H       
  29 H29            1.6981     4.8887     2.7494 H       
  30 H30            5.2920     4.6475    -0.2122 H       
  31 H31            8.3092     0.8674     0.1196 H       
  32 H32            9.3971     5.3730    -0.2536 H       
  33 H33           11.8265     5.7596    -0.2738 H       
  34 H34           13.3802     3.8591    -0.1110 H       
  35 H35           12.5144     1.5635     0.0716 H       
  36 H36           10.0882     1.1584     0.1036 H       
@<TRIPOS>BOND
   1    1    2 1
   2    1    9 1
   3    1   25 1
   4    2    3 2
   5    2   26 1
   6    3    4 1
   7    3   10 1
   8    4    5 ar
   9    4    9 ar
  10    5    6 ar
  11    5   27 1
  12    6    7 ar
  13    6   12 1
  14    7    8 ar
  15    7   24 1
  16    8    9 ar
  17    8   28 1
  18   10   11 2
  19   10   29 1
  20   12   13 ar
  21   12   14 ar
  22   13   15 ar
  23   13   30 1
  24   14   17 ar
  25   15   16 ar
  26   16   17 ar
  27   16   18 1
  28   17   31 1
  29   18   19 ar
  30   18   23 ar
  31   19   20 ar
  32   19   32 1
  33   20   21 ar
  34   20   33 1
  35   21   22 ar
  36   21   34 1
  37   22   23 ar
  38   22   35 1
  39   23   36 1

#	End of record

