#	Name: ASD02030648
#	Creating user name:	WinNT
#	Creation time:	15. 06. 2019 20:15

#	Modifying user name:	WinNT
#	Modification time:	15. 06. 2019 20:15

#	Program:	/corina/corina34_cracker 3.40 0067  02.08.2006

@<TRIPOS>MOLECULE
ASD02030648
  64   67    0    0    0
SMALL
NO_CHARGES


@<TRIPOS>ATOM
   1 C1            -0.1500     0.9922     0.5199 C.ar    
   2 C2            -0.1648    -0.3459     0.8513 C.ar    
   3 C3             1.0253    -0.9909     1.1566 C.ar    
   4 C4             2.2148    -0.2838     1.1312 C.ar    
   5 C5             2.2266     1.0658     0.8034 C.ar    
   6 C6             1.0448     1.6994     0.4895 C.ar    
   7 C7             0.9904     3.1535     0.0925 C.3     
   8 C8             3.5541     1.7769     0.8243 C.3     
   9 C9             3.4973     3.0597    -0.0035 C.3     
  10 N10            2.2795     3.7923     0.3780 N.am    
  11 C11            0.6888     3.2618    -1.4036 C.3     
  12 O12            1.6521     2.5054    -2.1397 O.3     
  13 C13            1.5262     2.4964    -3.4936 C.ar    
  14 C14            2.3463     5.0027     0.9670 C.2     
  15 S15            0.9098     5.8692     1.3082 S.2     
  16 C16            3.6575     5.5808     1.3179 C.ar    
  17 C17            1.2695     2.4775    -6.2499 C.ar    
  18 C18            0.3719     3.1967    -5.4748 C.ar    
  19 C19            0.4999     3.2059    -4.0994 C.ar    
  20 C20            2.4275     1.7823    -4.2692 C.ar    
  21 C21            2.2995     1.7731    -5.6445 C.ar    
  22 C22            4.7127     5.5309     0.4040 C.ar    
  23 C23            3.8466     6.1853     2.5633 C.ar    
  24 C24            5.0735     6.7240     2.8862 C.ar    
  25 C25            6.1194     6.6675     1.9780 C.ar    
  26 C26            5.9366     6.0733     0.7377 C.ar    
  27 O27            1.1436     2.4685    -7.6039 O.3     
  28 C28            2.1030     1.7067    -8.3396 C.3     
  29 O29            1.0228    -2.3110     1.4795 O.3     
  30 C30           -0.2512    -2.9470     1.6002 C.3     
  31 C31           -0.6321    -3.5836     0.2621 C.3     
  32 C32           -0.1804    -4.0300     2.6785 C.3     
  33 C33            1.8020     1.8159    -9.8357 C.3     
  34 Cl34           7.2497     6.0126    -0.3962 Cl      
  35 F35            7.3197     7.1975     2.2999 F       
  36 H36           -1.0752     1.4938     0.2776 H       
  37 H37           -1.0978    -0.8894     0.8734 H       
  38 H38            3.1413    -0.7854     1.3686 H       
  39 H39            0.2043     3.6545     0.6575 H       
  40 H40            3.8113     2.0257     1.8538 H       
  41 H41            4.3198     1.1188     0.4134 H       
  42 H42            4.3757     3.6711     0.2031 H       
  43 H43            3.4606     2.8125    -1.0645 H       
  44 H44           -0.3091     2.8708    -1.6023 H       
  45 H45            0.7369     4.3070    -1.7092 H       
  46 H46           -0.4301     3.7452    -5.9462 H       
  47 H47           -0.1995     3.7653    -3.4958 H       
  48 H48            3.2295     1.2337    -3.7978 H       
  49 H49            2.9984     1.2130    -6.2481 H       
  50 H50            4.5709     5.0685    -0.5617 H       
  51 H51            3.0326     6.2308     3.2716 H       
  52 H52            5.2203     7.1914     3.8487 H       
  53 H53            3.1029     2.0926    -8.1410 H       
  54 H54            2.0493     0.6620    -8.0335 H       
  55 H55           -1.0019    -2.2069     1.8772 H       
  56 H56            0.1186    -4.3237    -0.0150 H       
  57 H57           -1.6039    -4.0687     0.3541 H       
  58 H58           -0.6825    -2.8120    -0.5061 H       
  59 H59            0.0910    -3.5765     3.6318 H       
  60 H60           -1.1522    -4.5151     2.7705 H       
  61 H61            0.5703    -4.7701     2.4015 H       
  62 H62            0.8022     1.4300   -10.0343 H       
  63 H63            1.8557     2.8607   -10.1418 H       
  64 H64            2.5338     1.2349   -10.3969 H       
@<TRIPOS>BOND
   1    1    2 ar
   2    1    6 ar
   3    1   36 1
   4    2    3 ar
   5    2   37 1
   6    3    4 ar
   7    3   29 1
   8    4    5 ar
   9    4   38 1
  10    5    6 ar
  11    5    8 1
  12    6    7 1
  13    7   10 1
  14    7   11 1
  15    7   39 1
  16    8    9 1
  17    8   40 1
  18    8   41 1
  19    9   10 1
  20    9   42 1
  21    9   43 1
  22   10   14 am
  23   11   12 1
  24   11   44 1
  25   11   45 1
  26   12   13 1
  27   13   20 ar
  28   13   19 ar
  29   14   15 2
  30   14   16 1
  31   16   23 ar
  32   16   22 ar
  33   17   18 ar
  34   17   21 ar
  35   17   27 1
  36   18   19 ar
  37   18   46 1
  38   19   47 1
  39   20   21 ar
  40   20   48 1
  41   21   49 1
  42   22   26 ar
  43   22   50 1
  44   23   24 ar
  45   23   51 1
  46   24   25 ar
  47   24   52 1
  48   25   26 ar
  49   25   35 1
  50   26   34 1
  51   27   28 1
  52   28   33 1
  53   28   53 1
  54   28   54 1
  55   29   30 1
  56   30   31 1
  57   30   32 1
  58   30   55 1
  59   31   56 1
  60   31   57 1
  61   31   58 1
  62   32   59 1
  63   32   60 1
  64   32   61 1
  65   33   62 1
  66   33   63 1
  67   33   64 1

#	End of record

