#	Name: ASD01913181
#	Creating user name:	WinNT
#	Creation time:	15. 06. 2019 20:01

#	Modifying user name:	WinNT
#	Modification time:	15. 06. 2019 20:01

#	Program:	/corina/corina34_cracker 3.40 0067  02.08.2006

@<TRIPOS>MOLECULE
ASD01913181
  58   61    0    0    0
SMALL
NO_CHARGES


@<TRIPOS>ATOM
   1 C1             0.0383     1.4001     0.1964 C.3     
   2 C2            -0.3416     2.3600    -0.9329 C.3     
   3 C3            -1.8068     2.1423    -1.3160 C.3     
   4 O4            -0.1593     3.7077    -0.4941 O.3     
   5 C5             0.5483     2.0947    -2.1488 C.3     
   6 C6             1.4374     1.7456     0.7103 C.3     
   7 N7             2.4111     1.6244    -0.3794 N.am    
   8 C8             3.0191     2.9470    -0.5560 C.3     
   9 C9             2.3932     3.8776     0.4517 C.ar    
  10 C10            2.6056     5.2216     0.7072 C.ar    
  11 C11            1.8912     5.8590     1.7030 C.ar    
  12 C12            0.9629     5.1538     2.4463 C.ar    
  13 C13            0.7508     3.8126     2.1922 C.ar    
  14 C14            1.4661     3.1734     1.1940 C.ar    
  15 C15            2.6935     0.5104    -1.0836 C.2     
  16 C16            3.7447     0.5388    -2.1198 C.ar    
  17 C17            4.1534    -0.6458    -2.7310 C.ar    
  18 C18            5.1455    -0.6126    -3.7085 C.ar    
  19 C19            5.7264     0.6140    -4.0706 C.ar    
  20 C20            5.3121     1.7864    -3.4553 C.ar    
  21 C21            4.3267     1.7546    -2.4925 C.ar    
  22 O22            2.0824    -0.5178    -0.8655 O.2     
  23 C23            5.5717    -1.8244    -4.3413 C.1     
  24 C24            5.9212    -2.8179    -4.8601 C.1     
  25 C25            6.3475    -4.0297    -5.4929 C.ar    
  26 C26            7.3434    -3.9878    -6.4726 C.ar    
  27 C27            7.7435    -5.1669    -7.0738 C.ar    
  28 C28            7.1373    -6.3523    -6.6787 C.ar    
  29 C29            6.1580    -6.3226    -5.7031 C.ar    
  30 N30            5.7968    -5.1876    -5.1404 N.ar    
  31 O31            6.6926     0.6521    -5.0215 O.3     
  32 C32            7.2391     1.9335    -5.3400 C.3     
  33 H33           -0.6810     1.4935     1.0100 H       
  34 H34            0.0315     0.3768    -0.1789 H       
  35 H35           -2.4408     2.3313    -0.4497 H       
  36 H36           -2.0775     2.8261    -2.1205 H       
  37 H37           -1.9459     1.1143    -1.6507 H       
  38 H38           -0.6939     3.9465     0.2755 H       
  39 H39            0.5541     1.0272    -2.3688 H       
  40 H40            0.1607     2.6409    -3.0088 H       
  41 H41            1.5641     2.4272    -1.9350 H       
  42 H42            1.7083     1.0732     1.5242 H       
  43 H43            4.0937     2.8855    -0.3845 H       
  44 H44            2.8254     3.3109    -1.5651 H       
  45 H45            3.3308     5.7726     0.1267 H       
  46 H46            2.0581     6.9075     1.9011 H       
  47 H47            0.4041     5.6511     3.2253 H       
  48 H48            0.0258     3.2619     2.7731 H       
  49 H49            3.7028    -1.5855    -2.4476 H       
  50 H50            5.7605     2.7282    -3.7351 H       
  51 H51            4.0056     2.6716    -2.0209 H       
  52 H52            7.7937    -3.0480    -6.7562 H       
  53 H53            8.5105    -5.1660    -7.8342 H       
  54 H54            7.4281    -7.2894    -7.1301 H       
  55 H55            5.6856    -7.2436    -5.3948 H       
  56 H56            6.4456     2.5871    -5.7024 H       
  57 H57            7.6891     2.3686    -4.4477 H       
  58 H58            7.9995     1.8222    -6.1130 H       
@<TRIPOS>BOND
   1    1    2 1
   2    1    6 1
   3    1   33 1
   4    1   34 1
   5    2    3 1
   6    2    4 1
   7    2    5 1
   8    3   35 1
   9    3   36 1
  10    3   37 1
  11    4   38 1
  12    5   39 1
  13    5   40 1
  14    5   41 1
  15    6    7 1
  16    6   14 1
  17    6   42 1
  18    7    8 1
  19    7   15 am
  20    8    9 1
  21    8   43 1
  22    8   44 1
  23    9   10 ar
  24    9   14 ar
  25   10   11 ar
  26   10   45 1
  27   11   12 ar
  28   11   46 1
  29   12   13 ar
  30   12   47 1
  31   13   14 ar
  32   13   48 1
  33   15   16 1
  34   15   22 2
  35   16   17 ar
  36   16   21 ar
  37   17   18 ar
  38   17   49 1
  39   18   19 ar
  40   18   23 1
  41   19   20 ar
  42   19   31 1
  43   20   21 ar
  44   20   50 1
  45   21   51 1
  46   23   24 3
  47   24   25 1
  48   25   26 ar
  49   25   30 ar
  50   26   27 ar
  51   26   52 1
  52   27   28 ar
  53   27   53 1
  54   28   29 ar
  55   28   54 1
  56   29   30 ar
  57   29   55 1
  58   31   32 1
  59   32   56 1
  60   32   57 1
  61   32   58 1

#	End of record

