#	Name: ASD01883335
#	Creating user name:	WinNT
#	Creation time:	15. 06. 2019 19:46

#	Modifying user name:	WinNT
#	Modification time:	15. 06. 2019 19:46

#	Program:	/corina/corina34_cracker 3.40 0067  02.08.2006

@<TRIPOS>MOLECULE
ASD01883335
  56   58    0    0    0
SMALL
NO_CHARGES


@<TRIPOS>ATOM
   1 N1             0.0038     1.3058     0.0348 N.am    
   2 C2            -0.8400     1.5171    -0.9925 C.2     
   3 C3            -2.0913     0.8553    -1.0252 C.2     
   4 C4            -2.4225    -0.0124     0.0251 C.2     
   5 C5            -1.5011    -0.1924     1.0696 C.2     
   6 C6            -0.3173     0.4608     1.0477 C.2     
   7 O7            -0.5274     2.2772    -1.8932 O.2     
   8 C8            -3.0014     1.0685    -2.1100 C.1     
   9 N9            -3.7233     1.2377    -2.9706 N.1     
  10 O10           -3.6076    -0.6636     0.0325 O.3     
  11 C11            1.2956     1.9964     0.0573 C.3     
  12 C12            1.1459     3.3348     0.7833 C.3     
  13 C13            2.4951     4.0560     0.8068 C.3     
  14 C14            2.3196     5.4463     1.4209 C.3     
  15 C15            3.4896     3.2501     1.6448 C.3     
  16 C16           -3.5664    -2.0870    -0.0870 C.3     
  17 C17           -4.9703    -2.6342    -0.0598 C.ar    
  18 C18           -5.6747    -2.7865    -1.2398 C.ar    
  19 C19           -6.9618    -3.2878    -1.2175 C.ar    
  20 C20           -7.5475    -3.6387    -0.0098 C.ar    
  21 C21           -6.8386    -3.4849     1.1728 C.ar    
  22 C22           -5.5498    -2.9884     1.1446 C.ar    
  23 O23           -8.8136    -4.1317     0.0148 O.3     
  24 C24           -9.3527    -4.4718     1.2938 C.3     
  25 C25          -10.7548    -4.9975     1.1243 C.ar    
  26 C26          -10.9674    -6.3499     0.9326 C.ar    
  27 C27          -12.2535    -6.8322     0.7771 C.ar    
  28 C28          -13.3271    -5.9621     0.8138 C.ar    
  29 C29          -13.1146    -4.6099     1.0064 C.ar    
  30 C30          -11.8287    -4.1282     1.1663 C.ar    
  31 H31           -1.7364    -0.8560     1.8886 H       
  32 H32            0.3832     0.3140     1.8564 H       
  33 H33            2.0280     1.3801     0.5789 H       
  34 H34            1.6311     2.1729    -0.9646 H       
  35 H35            0.4136     3.9511     0.2617 H       
  36 H36            0.8104     3.1584     1.8052 H       
  37 H37            2.8727     4.1535    -0.2111 H       
  38 H38            1.9419     5.3488     2.4388 H       
  39 H39            3.2808     5.9601     1.4377 H       
  40 H40            1.6110     6.0205     0.8239 H       
  41 H41            3.1120     3.1526     2.6626 H       
  42 H42            3.6146     2.2596     1.2072 H       
  43 H43            4.4508     3.7639     1.6615 H       
  44 H44           -3.0887    -2.3589    -1.0282 H       
  45 H45           -2.9974    -2.5050     0.7434 H       
  46 H46           -5.2184    -2.5129    -2.1796 H       
  47 H47           -7.5117    -3.4063    -2.1394 H       
  48 H48           -7.2924    -3.7573     2.1143 H       
  49 H49           -4.9975    -2.8685     2.0650 H       
  50 H50           -8.7312    -5.2374     1.7581 H       
  51 H51           -9.3712    -3.5852     1.9277 H       
  52 H52          -10.1286    -7.0297     0.9039 H       
  53 H53          -12.4195    -7.8887     0.6265 H       
  54 H54          -14.3318    -6.3388     0.6915 H       
  55 H55          -13.9533    -3.9301     1.0348 H       
  56 H56          -11.6627    -3.0717     1.3168 H       
@<TRIPOS>BOND
   1    1    2 am
   2    1   11 1
   3    1    6 1
   4    2    3 1
   5    2    7 2
   6    3    4 2
   7    3    8 1
   8    4    5 1
   9    4   10 1
  10    5    6 2
  11    5   31 1
  12    6   32 1
  13    8    9 3
  14   10   16 1
  15   11   12 1
  16   11   33 1
  17   11   34 1
  18   12   13 1
  19   12   35 1
  20   12   36 1
  21   13   14 1
  22   13   15 1
  23   13   37 1
  24   14   38 1
  25   14   39 1
  26   14   40 1
  27   15   41 1
  28   15   42 1
  29   15   43 1
  30   16   17 1
  31   16   44 1
  32   16   45 1
  33   17   18 ar
  34   17   22 ar
  35   18   19 ar
  36   18   46 1
  37   19   20 ar
  38   19   47 1
  39   20   21 ar
  40   20   23 1
  41   21   22 ar
  42   21   48 1
  43   22   49 1
  44   23   24 1
  45   24   25 1
  46   24   50 1
  47   24   51 1
  48   25   26 ar
  49   25   30 ar
  50   26   27 ar
  51   26   52 1
  52   27   28 ar
  53   27   53 1
  54   28   29 ar
  55   28   54 1
  56   29   30 ar
  57   29   55 1
  58   30   56 1

#	End of record

