#	Name: ASD00170682
#	Creating user name:	WinNT
#	Creation time:	15. 06. 2019 18:32

#	Modifying user name:	WinNT
#	Modification time:	15. 06. 2019 18:32

#	Program:	/corina/corina34_cracker 3.40 0067  02.08.2006

@<TRIPOS>MOLECULE
ASD00170682
  38   39    0    0    0
SMALL
NO_CHARGES


@<TRIPOS>ATOM
   1 Cl1            3.0984     4.8962     5.1716 Cl      
   2 C2             2.2126     5.2121     3.7124 C.ar    
   3 C3             2.7260     4.8052     2.4920 C.ar    
   4 C4             2.0267     5.0528     1.3296 C.ar    
   5 C5             0.7989     5.7151     1.3846 C.ar    
   6 C6             0.2866     6.1229     2.6176 C.ar    
   7 C7             0.9925     5.8649     3.7738 C.ar    
   8 C8             0.0443     5.9842     0.1416 C.2     
   9 O9             0.5335     5.7096    -0.9392 O.2     
  10 C10           -1.2897     6.5802     0.2104 C.2     
  11 C11           -2.4546     5.8509     0.1515 C.2     
  12 N12           -2.5162     4.4783     0.0214 N.pl3   
  13 S13           -3.8113     6.8766     0.2620 S.3     
  14 C14           -2.8133     8.3138     0.3899 C.2     
  15 C15           -1.5273     8.0011     0.3540 C.2     
  16 C16           -0.4225     9.0222     0.4432 C.3     
  17 C17           -0.0762     9.5228    -0.9605 C.3     
  18 C18           -1.2889    10.2367    -1.5610 C.3     
  19 C19            1.1004    10.4974    -0.8784 C.3     
  20 C20            0.3063     8.3350    -1.8457 C.3     
  21 H21            3.6760     4.2932     2.4507 H       
  22 H22            2.4281     4.7354     0.3786 H       
  23 H23           -0.6625     6.6359     2.6662 H       
  24 H24            0.5972     6.1798     4.7282 H       
  25 H25           -1.7028     3.9666    -0.1103 H       
  26 H26           -3.3730     4.0253     0.0618 H       
  27 H27           -3.1966     9.3186     0.4888 H       
  28 H28           -0.7514     9.8606     1.0571 H       
  29 H29            0.4587     8.5655     0.8938 H       
  30 H30           -1.5614    11.0830    -0.9303 H       
  31 H31           -1.0421    10.5934    -2.5610 H       
  32 H32           -2.1271     9.5424    -1.6194 H       
  33 H33            1.9643     9.9888    -0.4506 H       
  34 H34            1.3471    10.8541    -1.8784 H       
  35 H35            0.8279    11.3437    -0.2478 H       
  36 H36           -0.5289     7.6364    -1.8972 H       
  37 H37            0.5447     8.6907    -2.8480 H       
  38 H38            1.1755     7.8315    -1.4225 H       
@<TRIPOS>BOND
   1    1    2 1
   2    2    3 ar
   3    2    7 ar
   4    3    4 ar
   5    3   21 1
   6    4    5 ar
   7    4   22 1
   8    5    6 ar
   9    5    8 1
  10    6    7 ar
  11    6   23 1
  12    7   24 1
  13    8    9 2
  14    8   10 1
  15   10   11 2
  16   10   15 1
  17   11   12 1
  18   11   13 1
  19   12   25 1
  20   12   26 1
  21   13   14 1
  22   14   15 2
  23   14   27 1
  24   15   16 1
  25   16   17 1
  26   16   28 1
  27   16   29 1
  28   17   18 1
  29   17   19 1
  30   17   20 1
  31   18   30 1
  32   18   31 1
  33   18   32 1
  34   19   33 1
  35   19   34 1
  36   19   35 1
  37   20   36 1
  38   20   37 1
  39   20   38 1

#	End of record

