#	Name: ASD03240201
#	Creating user name:	WinNT
#	Creation time:	15. 06. 2019 20:34

#	Modifying user name:	WinNT
#	Modification time:	15. 06. 2019 20:34

#	Program:	/corina/corina34_cracker 3.40 0067  02.08.2006

@<TRIPOS>MOLECULE
ASD03240201
  55   58    0    0    0
SMALL
NO_CHARGES


@<TRIPOS>ATOM
   1 C1            -0.2398     1.6036    -0.3090 C.ar    
   2 C2            -0.0878     0.2295    -0.3105 C.ar    
   3 C3             1.1671    -0.3274    -0.4722 C.ar    
   4 C4             2.2705     0.4892    -0.6325 C.ar    
   5 C5             2.1190     1.8644    -0.6312 C.ar    
   6 C6             0.8629     2.4213    -0.4693 C.ar    
   7 Cl7            3.5046     2.8909    -0.8320 Cl      
   8 C8            -1.2904    -0.6615    -0.1352 C.3     
   9 C9            -1.3597    -1.1454     1.3146 C.3     
  10 N10           -1.1777    -1.8157    -1.0304 N.am    
  11 C11           -2.6459    -1.9471     1.5238 C.3     
  12 O12           -2.7106    -2.3990     2.8779 O.3     
  13 C13           -2.2870    -2.4649    -1.4359 C.2     
  14 C14           -2.1711    -3.6521    -2.3568 C.3     
  15 O15           -3.3786    -2.0936    -1.0597 O.2     
  16 C16           -3.4387    -4.5048    -2.2544 C.3     
  17 C17           -2.0072    -3.1665    -3.7996 C.3     
  18 C18           -3.2523    -2.3781    -4.2119 C.3     
  19 N19           -4.4376    -3.2374    -4.0973 N.3     
  20 C20           -4.6424    -3.6776    -2.7114 C.3     
  21 N21           -1.0046    -4.4587    -1.9734 N.3     
  22 C22           -5.5627    -2.5979    -4.5857 C.ar    
  23 C23           -6.8130    -3.2343    -4.5757 C.ar    
  24 N24           -5.4875    -1.3621    -5.0715 N.ar    
  25 C25           -6.5593    -0.7479    -5.5389 C.ar    
  26 N26           -7.7496    -1.3077    -5.5542 N.ar    
  27 C27           -7.9273    -2.5412    -5.0840 C.ar    
  28 N28           -9.0075    -3.3717    -4.9649 N.pl3   
  29 C29           -8.6258    -4.5600    -4.3976 C.2     
  30 C30           -7.3079    -4.5387    -4.1399 C.2     
  31 H31           -1.2210     2.0381    -0.1872 H       
  32 H32            1.2853    -1.4010    -0.4729 H       
  33 H33            3.2509     0.0540    -0.7585 H       
  34 H34            0.7440     3.4947    -0.4685 H       
  35 H35           -2.1949    -0.1025    -0.3752 H       
  36 H36           -0.4983    -1.7784     1.5279 H       
  37 H37           -1.3540    -0.2861     1.9851 H       
  38 H38           -0.3047    -2.1126    -1.3313 H       
  39 H39           -3.5073    -1.3141     1.3105 H       
  40 H40           -2.6516    -2.8064     0.8533 H       
  41 H41           -3.5020    -2.9156     3.0828 H       
  42 H42           -3.3384    -5.3839    -2.8911 H       
  43 H43           -3.5840    -4.8183    -1.2206 H       
  44 H44           -1.1297    -2.5238    -3.8698 H       
  45 H45           -1.8843    -4.0245    -4.4606 H       
  46 H46           -3.3668    -1.5126    -3.5592 H       
  47 H47           -3.1450    -2.0430    -5.2435 H       
  48 H48           -5.5446    -4.2864    -2.6533 H       
  49 H49           -4.7503    -2.8061    -2.0658 H       
  50 H50           -0.1550    -3.9178    -2.0350 H       
  51 H51           -1.1207    -4.8457    -1.0488 H       
  52 H52           -6.4541     0.2556    -5.9240 H       
  53 H53           -9.9111    -3.1520    -5.2407 H       
  54 H54           -9.2853    -5.3902    -4.1920 H       
  55 H55           -6.7259    -5.3323    -3.6949 H       
@<TRIPOS>BOND
   1    1    2 ar
   2    1    6 ar
   3    1   31 1
   4    2    3 ar
   5    2    8 1
   6    3    4 ar
   7    3   32 1
   8    4    5 ar
   9    4   33 1
  10    5    6 ar
  11    5    7 1
  12    6   34 1
  13    8    9 1
  14    8   10 1
  15    8   35 1
  16    9   11 1
  17    9   36 1
  18    9   37 1
  19   10   13 am
  20   10   38 1
  21   11   12 1
  22   11   39 1
  23   11   40 1
  24   12   41 1
  25   13   14 1
  26   13   15 2
  27   14   16 1
  28   14   17 1
  29   14   21 1
  30   16   20 1
  31   16   42 1
  32   16   43 1
  33   17   18 1
  34   17   44 1
  35   17   45 1
  36   18   19 1
  37   18   46 1
  38   18   47 1
  39   19   20 1
  40   19   22 1
  41   20   48 1
  42   20   49 1
  43   21   50 1
  44   21   51 1
  45   22   23 ar
  46   22   24 ar
  47   23   27 ar
  48   23   30 1
  49   24   25 ar
  50   25   26 ar
  51   25   52 1
  52   26   27 ar
  53   27   28 1
  54   28   29 1
  55   28   53 1
  56   29   30 2
  57   29   54 1
  58   30   55 1

#	End of record

