#	Name: ASD01810009
#	Creating user name:	WinNT
#	Creation time:	15. 06. 2019 19:23

#	Modifying user name:	WinNT
#	Modification time:	15. 06. 2019 19:23

#	Program:	/corina/corina34_cracker 3.40 0067  02.08.2006

@<TRIPOS>MOLECULE
ASD01810009
  37   41    0    0    0
SMALL
NO_CHARGES


@<TRIPOS>ATOM
   1 N1            -0.0163     1.3479     0.0095 N.am    
   2 C2             0.0021    -0.0041     0.0020 C.2     
   3 C3            -1.2675    -0.7371    -0.3573 C.3     
   4 C4            -2.5159    -0.1239     0.2725 C.3     
   5 C5            -2.5122     1.3730     0.1209 C.ar    
   6 C6            -1.2660     1.9809     0.0315 C.ar    
   7 C7            -3.6302     2.1614     0.0681 C.ar    
   8 C8            -3.5033     3.5487    -0.0489 C.ar    
   9 C9            -2.2641     4.1482    -0.0992 C.ar    
  10 C10           -1.1113     3.3585    -0.0514 C.ar    
  11 C11            0.9563     2.3073     0.0053 C.ar    
  12 C12            0.3359     3.5836    -0.0414 C.ar    
  13 C13            1.0882     4.7562    -0.0669 C.ar    
  14 C14            2.4675     4.6223    -0.0385 C.ar    
  15 C15            3.0751     3.3801     0.0131 C.ar    
  16 C16            2.3458     2.2038     0.0388 C.ar    
  17 C17           -4.7731     4.3582    -0.1235 C.3     
  18 N18           -4.5084     5.7654     0.1882 N.3     
  19 C19           -3.4201     6.2786    -0.6590 C.3     
  20 C20           -2.1085     5.6433    -0.1976 C.3     
  21 O21            1.0140    -0.6129     0.2769 O.2     
  22 Cl22           3.4572     6.0482    -0.0691 Cl      
  23 H23           -1.3820    -0.7283    -1.4412 H       
  24 H24           -1.1802    -1.7717    -0.0255 H       
  25 H25           -3.4010    -0.5315    -0.2160 H       
  26 H26           -2.5439    -0.3768     1.3324 H       
  27 H27           -4.6108     1.7113     0.1165 H       
  28 H28            0.6170     5.7272    -0.1073 H       
  29 H29            4.1535     3.3267     0.0359 H       
  30 H30            2.8351     1.2419     0.0795 H       
  31 H31           -5.1872     4.2848    -1.1291 H       
  32 H32           -5.4943     3.9615     0.5910 H       
  33 H33           -5.3429     6.3225     0.0817 H       
  34 H34           -3.6095     6.0149    -1.6996 H       
  35 H35           -3.3577     7.3623    -0.5601 H       
  36 H36           -1.8370     6.0435     0.7792 H       
  37 H37           -1.3213     5.8784    -0.9140 H       
@<TRIPOS>BOND
   1    1    2 am
   2    1   11 1
   3    1    6 1
   4    2    3 1
   5    2   21 2
   6    3    4 1
   7    3   23 1
   8    3   24 1
   9    4    5 1
  10    4   25 1
  11    4   26 1
  12    5    6 ar
  13    5    7 ar
  14    6   10 ar
  15    7    8 ar
  16    7   27 1
  17    8    9 ar
  18    8   17 1
  19    9   10 ar
  20    9   20 1
  21   10   12 1
  22   11   12 ar
  23   11   16 ar
  24   12   13 ar
  25   13   14 ar
  26   13   28 1
  27   14   15 ar
  28   14   22 1
  29   15   16 ar
  30   15   29 1
  31   16   30 1
  32   17   18 1
  33   17   31 1
  34   17   32 1
  35   18   19 1
  36   18   33 1
  37   19   20 1
  38   19   34 1
  39   19   35 1
  40   20   36 1
  41   20   37 1

#	End of record

