#	Name: ASD01901016
#	Creating user name:	WinNT
#	Creation time:	15. 06. 2019 19:53

#	Modifying user name:	WinNT
#	Modification time:	15. 06. 2019 19:53

#	Program:	/corina/corina34_cracker 3.40 0067  02.08.2006

@<TRIPOS>MOLECULE
ASD01901016
  26   27    0    0    0
SMALL
NO_CHARGES


@<TRIPOS>ATOM
   1 C1            -0.0159     1.3189     0.0093 C.ar    
   2 N2             0.0021    -0.0041     0.0020 N.ar    
   3 C3             1.1600    -0.6670    -0.0126 C.ar    
   4 C4             2.3580     0.0619    -0.0202 C.ar    
   5 C5             2.2877     1.4430    -0.0121 C.ar    
   6 N6             1.1013     2.0317     0.0025 N.ar    
   7 N7            -1.2345     1.9762     0.0186 N.pl3   
   8 C8             1.1795    -2.1390    -0.0203 C.2     
   9 C9             0.0250    -2.8262    -0.0124 C.2     
  10 C10            0.0445    -4.2996    -0.0200 C.ar    
  11 C11           -1.1544    -5.0178    -0.0119 C.ar    
  12 C12           -1.1282    -6.3967    -0.0196 C.ar    
  13 C13            0.0812    -7.0691    -0.0349 C.ar    
  14 C14            1.2723    -6.3648    -0.0425 C.ar    
  15 C15            1.2619    -4.9856    -0.0413 C.ar    
  16 Br16           4.0294    -0.8225    -0.0404 Br      
  17 H17            3.1907     2.0354    -0.0172 H       
  18 H18           -2.0601     1.4671     0.0197 H       
  19 H19           -1.2625     2.9457     0.0240 H       
  20 H20            2.1218    -2.6666    -0.0321 H       
  21 H21           -0.9174    -2.2987    -0.0006 H       
  22 H22           -2.0990    -4.4943     0.0007 H       
  23 H23           -2.0539    -6.9530    -0.0134 H       
  24 H24            0.0955    -8.1490    -0.0405 H       
  25 H25            2.2124    -6.8963    -0.0537 H       
  26 H26            2.1922    -4.4372    -0.0521 H       
@<TRIPOS>BOND
   1    1    2 ar
   2    1    6 ar
   3    1    7 1
   4    2    3 ar
   5    3    4 ar
   6    3    8 1
   7    4    5 ar
   8    4   16 1
   9    5    6 ar
  10    5   17 1
  11    7   18 1
  12    7   19 1
  13    8    9 2
  14    8   20 1
  15    9   10 1
  16    9   21 1
  17   10   11 ar
  18   10   15 ar
  19   11   12 ar
  20   11   22 1
  21   12   13 ar
  22   12   23 1
  23   13   14 ar
  24   13   24 1
  25   14   15 ar
  26   14   25 1
  27   15   26 1

#	End of record

