#	Name: ASD01230708
#	Creating user name:	WinNT
#	Creation time:	15. 06. 2019 19:14

#	Modifying user name:	WinNT
#	Modification time:	15. 06. 2019 19:14

#	Program:	/corina/corina34_cracker 3.40 0067  02.08.2006

@<TRIPOS>MOLECULE
ASD01230708
  52   55    0    0    0
SMALL
NO_CHARGES


@<TRIPOS>ATOM
   1 C1             0.0388     1.4268     0.9042 C.2     
   2 C2             0.0818     0.0948     1.2551 C.2     
   3 C3            -1.1216    -0.5898     1.4717 C.2     
   4 C4            -2.3034     0.0350     1.3302 C.2     
   5 N5            -2.4054     1.3542     0.9666 N.pl3   
   6 C6            -1.2736     2.0949     0.7746 C.2     
   7 C7            -3.7638     1.8784     0.8018 C.3     
   8 C8            -3.8381     3.3348     1.2695 C.3     
   9 S9            -2.6164     4.2726     0.2986 S.o2    
  10 N10           -1.2406     3.3720     0.4809 N.am    
  11 C11            1.2908     2.1805     0.6661 C.ar    
  12 C12            2.1221     1.8385    -0.4008 C.ar    
  13 C13            3.2874     2.5447    -0.6174 C.ar    
  14 C14            3.6322     3.5899     0.2209 C.ar    
  15 C15            2.8120     3.9339     1.2807 C.ar    
  16 C16            1.6412     3.2392     1.5043 C.ar    
  17 C17            4.9068     4.3567    -0.0211 C.3     
  18 C18            6.0723     3.4015    -0.0371 C.ar    
  19 C19            6.9175     3.3605    -1.1302 C.ar    
  20 C20            7.9866     2.4844    -1.1448 C.ar    
  21 C21            8.2108     1.6495    -0.0661 C.ar    
  22 C22            7.3662     1.6911     1.0274 C.ar    
  23 C23            6.2996     2.5704     1.0439 C.ar    
  24 C24            9.3757     0.6936    -0.0825 C.3     
  25 O25           -2.9142     4.2031    -1.0891 O.2     
  26 O26           -2.3150     5.5105     0.9279 O.2     
  27 C27            4.8202     5.0781    -1.3676 C.3     
  28 C28            5.1042     5.3835     1.0958 C.3     
  29 H29            1.0286    -0.4139     1.3611 H       
  30 H30           -1.0993    -1.6317     1.7554 H       
  31 H31           -3.2097    -0.5243     1.5097 H       
  32 H32           -4.0453     1.8236    -0.2498 H       
  33 H33           -4.4556     1.2760     1.3905 H       
  34 H34           -4.8376     3.7316     1.0915 H       
  35 H35           -3.5963     3.3971     2.3305 H       
  36 H36            1.8542     1.0225    -1.0557 H       
  37 H37            3.9320     2.2807    -1.4428 H       
  38 H38            3.0868     4.7507     1.9317 H       
  39 H39            1.0015     3.5089     2.3317 H       
  40 H40            6.7423     4.0128    -1.9730 H       
  41 H41            8.6464     2.4518    -1.9992 H       
  42 H42            7.5412     1.0386     1.8700 H       
  43 H43            5.6398     2.6029     1.8982 H       
  44 H44           10.2517     1.1810     0.3454 H       
  45 H45            9.1285    -0.1906     0.5051 H       
  46 H46            9.5895     0.3989    -1.1099 H       
  47 H47            3.9772     5.7690    -1.3561 H       
  48 H48            5.7421     5.6327    -1.5426 H       
  49 H49            4.6796     4.3466    -2.1633 H       
  50 H50            5.1659     4.8696     2.0551 H       
  51 H51            6.0261     5.9381     0.9208 H       
  52 H52            4.2611     6.0744     1.1074 H       
@<TRIPOS>BOND
   1    1    2 2
   2    1   11 1
   3    1    6 1
   4    2    3 1
   5    2   29 1
   6    3    4 2
   7    3   30 1
   8    4    5 1
   9    4   31 1
  10    5    6 1
  11    5    7 1
  12    6   10 2
  13    7    8 1
  14    7   32 1
  15    7   33 1
  16    8    9 1
  17    8   34 1
  18    8   35 1
  19    9   10 am
  20    9   25 2
  21    9   26 2
  22   11   12 ar
  23   11   16 ar
  24   12   13 ar
  25   12   36 1
  26   13   14 ar
  27   13   37 1
  28   14   15 ar
  29   14   17 1
  30   15   16 ar
  31   15   38 1
  32   16   39 1
  33   17   18 1
  34   17   27 1
  35   17   28 1
  36   18   19 ar
  37   18   23 ar
  38   19   20 ar
  39   19   40 1
  40   20   21 ar
  41   20   41 1
  42   21   22 ar
  43   21   24 1
  44   22   23 ar
  45   22   42 1
  46   23   43 1
  47   24   44 1
  48   24   45 1
  49   24   46 1
  50   27   47 1
  51   27   48 1
  52   27   49 1
  53   28   50 1
  54   28   51 1
  55   28   52 1

#	End of record

