#	Name: ASD08820001
#	Creating user name:	WinNT
#	Creation time:	15. 06. 2019 21:19

#	Modifying user name:	WinNT
#	Modification time:	15. 06. 2019 21:19

#	Program:	/corina/corina34_cracker 3.40 0067  02.08.2006

@<TRIPOS>MOLECULE
ASD08820001
  39   41    0    0    0
SMALL
NO_CHARGES


@<TRIPOS>ATOM
   1 C1             0.1655     1.4238     0.1106 C.3     
   2 O2             0.1489    -0.0048     0.0829 O.3     
   3 C3             0.7161    -0.6077    -0.9949 C.ar    
   4 C4             1.2785     0.1754    -2.0069 C.ar    
   5 C5             1.8533    -0.3996    -3.0976 C.ar    
   6 C6             1.8847    -1.8003    -3.2124 C.ar    
   7 C7             1.3154    -2.5952    -2.1869 C.ar    
   8 C8             0.7344    -1.9719    -1.0728 C.ar    
   9 C9             1.3479    -4.0016    -2.3040 C.ar    
  10 C10            1.9320    -4.5749    -3.4121 C.ar    
  11 C11            2.4882    -3.7836    -4.4134 C.ar    
  12 C12            2.4702    -2.4251    -4.3271 C.ar    
  13 N13            0.7925    -4.8056    -1.3040 N.pl3   
  14 C14           -0.0540    -5.8486    -1.5234 C.2     
  15 C15           -0.3670    -6.3700    -0.3079 C.2     
  16 C16            0.3394    -5.5794     0.6357 C.2     
  17 N17            1.0118    -4.6704    -0.0456 N.2     
  18 C18            0.3285    -5.7454     2.1007 C.2     
  19 O19           -0.3335    -6.6308     2.6074 O.2     
  20 N20            1.0521    -4.9159     2.8784 N.am    
  21 N21           -1.2109    -7.4598    -0.0420 N.am    
  22 C22           -1.8120    -8.1103    -1.0580 C.2     
  23 O23           -1.6232    -7.7531    -2.2049 O.2     
  24 N24           -2.6222    -9.1566    -0.8027 N.am    
  25 H25            1.1969     1.7757     0.0873 H       
  26 H26           -0.3699     1.8103    -0.7566 H       
  27 H27           -0.3178     1.7752     1.0222 H       
  28 H28            1.2561     1.2518    -1.9219 H       
  29 H29            2.2835     0.2177    -3.8724 H       
  30 H30            0.2975    -2.5668    -0.2844 H       
  31 H31            1.9590    -5.6506    -3.5050 H       
  32 H32            2.9409    -4.2551    -5.2731 H       
  33 H33            2.9068    -1.8278    -5.1138 H       
  34 H34           -0.4097    -6.1961    -2.4821 H       
  35 H35            1.5801    -4.2096     2.4742 H       
  36 H36            1.0449    -5.0251     3.8422 H       
  37 H37           -1.3615    -7.7447     0.8729 H       
  38 H38           -2.7728    -9.4415     0.1122 H       
  39 H39           -3.0548    -9.6247    -1.5338 H       
@<TRIPOS>BOND
   1    1    2 1
   2    1   25 1
   3    1   26 1
   4    1   27 1
   5    2    3 1
   6    3    4 ar
   7    3    8 ar
   8    4    5 ar
   9    4   28 1
  10    5    6 ar
  11    5   29 1
  12    6    7 ar
  13    6   12 ar
  14    7    8 ar
  15    7    9 ar
  16    8   30 1
  17    9   10 ar
  18    9   13 1
  19   10   11 ar
  20   10   31 1
  21   11   12 ar
  22   11   32 1
  23   12   33 1
  24   13   14 1
  25   13   17 1
  26   14   15 2
  27   14   34 1
  28   15   16 1
  29   15   21 1
  30   16   17 2
  31   16   18 1
  32   18   19 2
  33   18   20 am
  34   20   35 1
  35   20   36 1
  36   21   22 am
  37   21   37 1
  38   22   23 2
  39   22   24 am
  40   24   38 1
  41   24   39 1

#	End of record

