#	Name: ASD01913968
#	Creating user name:	WinNT
#	Creation time:	15. 06. 2019 20:02

#	Modifying user name:	WinNT
#	Modification time:	15. 06. 2019 20:02

#	Program:	/corina/corina34_cracker 3.40 0067  02.08.2006

@<TRIPOS>MOLECULE
ASD01913968
  37   40    0    0    0
SMALL
NO_CHARGES


@<TRIPOS>ATOM
   1 C1            -0.1356     1.2077    -0.8676 C.ar    
   2 C2            -0.0911    -0.1550    -0.5925 C.ar    
   3 C3             1.1033    -0.7935    -0.4276 C.ar    
   4 C4             2.2954    -0.0710    -0.5366 C.ar    
   5 C5             2.2557     1.3169    -0.8172 C.ar    
   6 C6             1.0086     1.9395    -0.9800 C.ar    
   7 C7             3.5966    -0.7030    -0.3692 C.ar    
   8 C8             4.7322     0.1158    -0.4991 C.ar    
   9 C9             4.5753     1.4781    -0.7782 C.ar    
  10 N10            3.3938     2.0189    -0.9234 N.ar    
  11 N11            4.0523    -1.9538    -0.1033 N.pl3   
  12 N12            5.3361    -1.9836    -0.0577 N.2     
  13 C13            5.8595    -0.7957    -0.2808 C.2     
  14 C14            7.2933    -0.4514    -0.3066 C.2     
  15 C15            3.1908    -3.1203     0.1049 C.3     
  16 N16            8.2195    -1.4054    -0.0862 N.am    
  17 C17            9.5791    -1.1003    -0.2038 C.ar    
  18 C18           10.0486     0.1467     0.1866 C.ar    
  19 C19           11.3933     0.4450     0.0690 C.ar    
  20 C20           12.2705    -0.4981    -0.4373 C.ar    
  21 C21           11.8050    -1.7406    -0.8267 C.ar    
  22 C22           10.4638    -2.0464    -0.7062 C.ar    
  23 O23            7.6399     0.6933    -0.5267 O.2     
  24 Cl24          11.9819     2.0038     0.5561 Cl      
  25 H25           -1.0917     1.6925    -0.9985 H       
  26 H26           -1.0117    -0.7134    -0.5083 H       
  27 H27            1.1279    -1.8518    -0.2136 H       
  28 H28            0.9556     2.9967    -1.1946 H       
  29 H29            5.4534     2.0991    -0.8762 H       
  30 H30            2.9212    -3.5498    -0.8599 H       
  31 H31            3.7232    -3.8640     0.6977 H       
  32 H32            2.2869    -2.8148     0.6320 H       
  33 H33            7.9429    -2.3035     0.1540 H       
  34 H34            9.3640     0.8829     0.5814 H       
  35 H35           13.3206    -0.2630    -0.5287 H       
  36 H36           12.4921    -2.4745    -1.2214 H       
  37 H37           10.1014    -3.0172    -1.0103 H       
@<TRIPOS>BOND
   1    1    2 ar
   2    1    6 ar
   3    1   25 1
   4    2    3 ar
   5    2   26 1
   6    3    4 ar
   7    3   27 1
   8    4    5 ar
   9    4    7 ar
  10    5    6 ar
  11    5   10 ar
  12    6   28 1
  13    7    8 ar
  14    7   11 1
  15    8    9 ar
  16    8   13 1
  17    9   10 ar
  18    9   29 1
  19   11   12 1
  20   11   15 1
  21   12   13 2
  22   13   14 1
  23   14   16 am
  24   14   23 2
  25   15   30 1
  26   15   31 1
  27   15   32 1
  28   16   17 1
  29   16   33 1
  30   17   18 ar
  31   17   22 ar
  32   18   19 ar
  33   18   34 1
  34   19   20 ar
  35   19   24 1
  36   20   21 ar
  37   20   35 1
  38   21   22 ar
  39   21   36 1
  40   22   37 1

#	End of record

