#	Name: ASD01813651
#	Creating user name:	WinNT
#	Creation time:	15. 06. 2019 19:30

#	Modifying user name:	WinNT
#	Modification time:	15. 06. 2019 19:30

#	Program:	/corina/corina34_cracker 3.40 0067  02.08.2006

@<TRIPOS>MOLECULE
ASD01813651
  50   53    0    0    0
SMALL
NO_CHARGES


@<TRIPOS>ATOM
   1 C1             0.0147     1.4784     0.3309 C.ar    
   2 C2             0.0508     0.0915     0.3397 C.ar    
   3 C3             1.2456    -0.5829     0.1945 C.ar    
   4 C4             2.4329     0.1313     0.0369 C.ar    
   5 C5             2.3916     1.5355     0.0287 C.ar    
   6 C6             1.1758     2.2031     0.1767 C.ar    
   7 N7             3.6340    -0.5299    -0.1081 N.pl3   
   8 C8             4.8003     0.1094    -0.2609 C.2     
   9 C9             4.8864     1.4871    -0.2845 C.2     
  10 C10            3.6544     2.2789    -0.1387 C.2     
  11 O11            3.6770     3.4971    -0.1532 O.2     
  12 C12            6.1863     2.1518    -0.4532 C.2     
  13 O13            6.2573     3.4978    -0.4747 O.3     
  14 O14            7.1974     1.4878    -0.5735 O.2     
  15 C15            3.6341    -1.9949    -0.0941 C.3     
  16 C16            3.4847    -2.5107    -1.5021 C.ar    
  17 C17            4.5895    -2.6216    -2.3254 C.ar    
  18 N18            4.4721    -3.0716    -3.5584 N.ar    
  19 C19            3.2975    -3.4345    -4.0574 C.ar    
  20 C20            2.1420    -3.3487    -3.2826 C.ar    
  21 C21            2.2372    -2.8845    -1.9826 C.ar    
  22 F22            1.2653    -1.9337     0.2054 F       
  23 C23            3.2133    -3.9347    -5.4506 C.ar    
  24 C24            4.3650    -4.0228    -6.2317 C.ar    
  25 C25            4.2841    -4.4881    -7.5266 C.ar    
  26 C26            3.0558    -4.8694    -8.0540 C.ar    
  27 C27            1.9063    -4.7821    -7.2773 C.ar    
  28 C28            1.9831    -4.3232    -5.9799 C.ar    
  29 N29            2.9764    -5.3409    -9.3672 N.am    
  30 C30            4.0445    -5.9344    -9.9358 C.2     
  31 C31            4.0055    -6.3208   -11.3919 C.3     
  32 O32            5.0372    -6.1577    -9.2756 O.2     
  33 H33           -0.9288     1.9921     0.4412 H       
  34 H34           -0.8660    -0.4661     0.4617 H       
  35 H35            1.1450     3.2827     0.1698 H       
  36 H36            5.7041    -0.4719    -0.3689 H       
  37 H37            7.1342     3.8894    -0.5880 H       
  38 H38            4.5732    -2.3541     0.3268 H       
  39 H39            2.8031    -2.3524     0.5140 H       
  40 H40            5.5620    -2.3351    -1.9533 H       
  41 H41            1.1864    -3.6443    -3.6899 H       
  42 H42            1.3593    -2.8073    -1.3583 H       
  43 H43            5.3195    -3.7264    -5.8226 H       
  44 H44            5.1758    -4.5562    -8.1322 H       
  45 H45            0.9530    -5.0782    -7.6894 H       
  46 H46            1.0897    -4.2555    -5.3768 H       
  47 H47            2.1526    -5.2410    -9.8694 H       
  48 H48            3.0402    -6.0434   -11.8156 H       
  49 H49            4.8001    -5.8010   -11.9272 H       
  50 H50            4.1478    -7.3973   -11.4862 H       
@<TRIPOS>BOND
   1    1    2 ar
   2    1    6 ar
   3    1   33 1
   4    2    3 ar
   5    2   34 1
   6    3    4 ar
   7    3   22 1
   8    4    5 ar
   9    4    7 1
  10    5    6 ar
  11    5   10 1
  12    6   35 1
  13    7    8 1
  14    7   15 1
  15    8    9 2
  16    8   36 1
  17    9   10 1
  18    9   12 1
  19   10   11 2
  20   12   13 1
  21   12   14 2
  22   13   37 1
  23   15   16 1
  24   15   38 1
  25   15   39 1
  26   16   17 ar
  27   16   21 ar
  28   17   18 ar
  29   17   40 1
  30   18   19 ar
  31   19   20 ar
  32   19   23 1
  33   20   21 ar
  34   20   41 1
  35   21   42 1
  36   23   24 ar
  37   23   28 ar
  38   24   25 ar
  39   24   43 1
  40   25   26 ar
  41   25   44 1
  42   26   27 ar
  43   26   29 1
  44   27   28 ar
  45   27   45 1
  46   28   46 1
  47   29   30 am
  48   29   47 1
  49   30   31 1
  50   30   32 2
  51   31   48 1
  52   31   49 1
  53   31   50 1

#	End of record

