#	Name: ASD05313247
#	Creating user name:	WinNT
#	Creation time:	15. 06. 2019 20:59

#	Modifying user name:	WinNT
#	Modification time:	15. 06. 2019 20:59

#	Program:	/corina/corina34_cracker 3.40 0067  02.08.2006

@<TRIPOS>MOLECULE
ASD05313247
  39   42    0    0    0
SMALL
NO_CHARGES


@<TRIPOS>ATOM
   1 C1            -0.0739     0.8189     1.0248 C.2     
   2 C2             0.1129    -0.6197     0.5961 C.3     
   3 N3             0.9286     1.7291     1.0510 N.pl3   
   4 N4             1.4550    -0.7208    -0.0058 N.am    
   5 C5             2.5699    -0.0412     0.6715 C.3     
   6 C6             2.3164     1.4705     0.6627 C.3     
   7 N7            -1.1747     1.3874     1.4247 N.2     
   8 C8            -0.9334     2.6695     1.7240 C.2     
   9 C9             0.3911     2.9112     1.4983 C.2     
  10 S10            0.3760     5.6825     2.2749 S.3     
  11 C11            1.1026     4.1848     1.6982 C.2     
  12 N12            2.3724     4.3855     1.4771 N.2     
  13 C13            2.8347     5.5923     1.7131 C.2     
  14 C14            1.9420     6.4825     2.1565 C.2     
  15 C15            1.6546    -1.4161    -1.1430 C.2     
  16 O16            2.7463    -1.4066    -1.6775 O.2     
  17 C17            0.5463    -2.1898    -1.7401 C.ar    
  18 C18            0.3150    -2.1365    -3.1171 C.ar    
  19 C19           -0.7229    -2.8625    -3.6677 C.ar    
  20 C20           -1.5319    -3.6401    -2.8591 C.ar    
  21 C21           -1.3080    -3.6965    -1.4947 C.ar    
  22 C22           -0.2710    -2.9819    -0.9319 C.ar    
  23 C23           -0.9748    -2.8070    -5.1525 C.3     
  24 F24           -2.0695    -3.6179    -5.4704 F       
  25 F25           -1.2463    -1.4877    -5.5304 F       
  26 F26            0.1578    -3.2639    -5.8350 F       
  27 Cl27           1.3290    -1.1600    -4.1329 Cl      
  28 H28            0.0434    -1.2777     1.4623 H       
  29 H29           -0.6454    -0.8899    -0.1388 H       
  30 H30            2.6398    -0.3930     1.7007 H       
  31 H31            3.5008    -0.2576     0.1474 H       
  32 H32            2.4936     1.8636    -0.3383 H       
  33 H33            2.9888     1.9564     1.3697 H       
  34 H34           -1.6580     3.3855     2.0828 H       
  35 H35            3.8723     5.8491     1.5588 H       
  36 H36            2.1451     7.5150     2.3999 H       
  37 H37           -2.3424    -4.2057    -3.2945 H       
  38 H38           -1.9442    -4.3053    -0.8693 H       
  39 H39           -0.0947    -3.0314     0.1324 H       
@<TRIPOS>BOND
   1    1    2 1
   2    1    3 1
   3    1    7 2
   4    2    4 1
   5    2   28 1
   6    2   29 1
   7    3    6 1
   8    3    9 1
   9    4    5 1
  10    4   15 am
  11    5    6 1
  12    5   30 1
  13    5   31 1
  14    6   32 1
  15    6   33 1
  16    7    8 1
  17    8    9 2
  18    8   34 1
  19    9   11 1
  20   10   11 1
  21   10   14 1
  22   11   12 2
  23   12   13 1
  24   13   14 2
  25   13   35 1
  26   14   36 1
  27   15   16 2
  28   15   17 1
  29   17   18 ar
  30   17   22 ar
  31   18   19 ar
  32   18   27 1
  33   19   20 ar
  34   19   23 1
  35   20   21 ar
  36   20   37 1
  37   21   22 ar
  38   21   38 1
  39   22   39 1
  40   23   24 1
  41   23   25 1
  42   23   26 1

#	End of record

