#	Name: ASD01880836
#	Creating user name:	WinNT
#	Creation time:	15. 06. 2019 19:41

#	Modifying user name:	WinNT
#	Modification time:	15. 06. 2019 19:41

#	Program:	/corina/corina34_cracker 3.40 0067  02.08.2006

@<TRIPOS>MOLECULE
ASD01880836
  66   68    0    0    0
SMALL
NO_CHARGES


@<TRIPOS>ATOM
   1 N1            -0.0158     1.3135     0.0093 N.ar    
   2 C2             0.0021    -0.0041     0.0020 C.ar    
   3 N3             1.1312    -0.6835    -0.0120 N.ar    
   4 C4             2.3010    -0.0614    -0.0198 C.ar    
   5 C5             2.3294     1.3206    -0.0131 C.ar    
   6 C6             1.1167     2.0074     0.0022 C.ar    
   7 C7             3.6391     2.0661    -0.0211 C.3     
   8 O8             4.0409     2.3085    -1.3708 O.3     
   9 C9             5.2085     2.9750    -1.5558 C.ar    
  10 C10            5.6586     3.2442    -2.8447 C.ar    
  11 C11            6.8396     3.9189    -3.0304 C.ar    
  12 C12            7.5955     4.3385    -1.9307 C.ar    
  13 C13            7.1387     4.0659    -0.6383 C.ar    
  14 C14            5.9508     3.3930    -0.4577 C.ar    
  15 C15            7.5943     4.3610    -4.2593 C.3     
  16 N16            8.8002     5.0432    -3.7763 N.am    
  17 C17            8.7969     5.0279    -2.4323 C.2     
  18 O18            9.6623     5.5143    -1.7303 O.2     
  19 C19           -0.0164     5.5091     0.0309 C.3     
  20 C20           -1.3913     6.1801     0.0476 C.3     
  21 C21           -1.2169     7.7001     0.0536 C.3     
  22 C22            7.5908     5.9610     0.8958 C.3     
  23 C23            7.9428     4.5113     0.5559 C.3     
  24 O24            1.0934     3.3624     0.0092 O.3     
  25 C25           -0.1907     3.9891     0.0249 C.3     
  26 C26            9.4847     7.1038    -4.9017 C.3     
  27 C27            9.8374     5.6420    -4.6200 C.3     
  28 C28            4.0058    -1.1111    -1.4830 C.3     
  29 C29            3.5847    -0.8508    -0.0353 C.3     
  30 C30           -1.7607    -1.0009    -1.4291 C.3     
  31 C31           -1.3047    -0.7547     0.0105 C.3     
  32 H32            3.5192     3.0167     0.4986 H       
  33 H33            4.3997     1.4698     0.4829 H       
  34 H34            5.0797     2.9226    -3.6978 H       
  35 H35            5.5982     3.1829     0.5413 H       
  36 H36            7.8694     3.4953    -4.8618 H       
  37 H37            6.9848     5.0482    -4.8463 H       
  38 H38            0.5269     5.8160    -0.8629 H       
  39 H39            0.5442     5.8070     0.9170 H       
  40 H40           -1.9518     5.8822    -0.8384 H       
  41 H41           -1.9345     5.8732     0.9414 H       
  42 H42           -2.1964     8.1782     0.0656 H       
  43 H43           -0.6564     7.9980     0.9397 H       
  44 H44           -0.6737     8.0070    -0.8401 H       
  45 H45            8.1723     6.2832     1.7595 H       
  46 H46            7.8213     6.6002     0.0436 H       
  47 H47            6.5278     6.0322     1.1264 H       
  48 H48            7.7122     3.8721     1.4081 H       
  49 H49            9.0058     4.4400     0.3253 H       
  50 H50           -0.7339     3.6821     0.9187 H       
  51 H51           -0.7513     3.6911    -0.8612 H       
  52 H52            9.4216     7.6502    -3.9607 H       
  53 H53           10.2564     7.5493    -5.5295 H       
  54 H54            8.5247     7.1534    -5.4157 H       
  55 H55           10.7973     5.5924    -4.1060 H       
  56 H56            9.9005     5.0956    -5.5611 H       
  57 H57            4.9343    -1.6820    -1.4942 H       
  58 H58            3.2255    -1.6765    -1.9923 H       
  59 H59            4.1578    -0.1602    -1.9937 H       
  60 H60            4.3650    -0.2853     0.4741 H       
  61 H61            3.4327    -1.8016     0.4755 H       
  62 H62           -2.7058    -1.5438    -1.4230 H       
  63 H63           -1.8937    -0.0455    -1.9365 H       
  64 H64           -1.0073    -1.5889    -1.9533 H       
  65 H65           -1.1716    -1.7101     0.5179 H       
  66 H66           -2.0580    -0.1667     0.5347 H       
@<TRIPOS>BOND
   1    1    2 ar
   2    1    6 ar
   3    2    3 ar
   4    2   31 1
   5    3    4 ar
   6    4    5 ar
   7    4   29 1
   8    5    6 ar
   9    5    7 1
  10    6   24 1
  11    7    8 1
  12    7   32 1
  13    7   33 1
  14    8    9 1
  15    9   10 ar
  16    9   14 ar
  17   10   11 ar
  18   10   34 1
  19   11   12 ar
  20   11   15 1
  21   12   13 ar
  22   12   17 1
  23   13   14 ar
  24   13   23 1
  25   14   35 1
  26   15   16 1
  27   15   36 1
  28   15   37 1
  29   16   17 am
  30   16   27 1
  31   17   18 2
  32   19   20 1
  33   19   25 1
  34   19   38 1
  35   19   39 1
  36   20   21 1
  37   20   40 1
  38   20   41 1
  39   21   42 1
  40   21   43 1
  41   21   44 1
  42   22   23 1
  43   22   45 1
  44   22   46 1
  45   22   47 1
  46   23   48 1
  47   23   49 1
  48   24   25 1
  49   25   50 1
  50   25   51 1
  51   26   27 1
  52   26   52 1
  53   26   53 1
  54   26   54 1
  55   27   55 1
  56   27   56 1
  57   28   29 1
  58   28   57 1
  59   28   58 1
  60   28   59 1
  61   29   60 1
  62   29   61 1
  63   30   31 1
  64   30   62 1
  65   30   63 1
  66   30   64 1
  67   31   65 1
  68   31   66 1

#	End of record

