#	Name: ASD03092652
#	Creating user name:	WinNT
#	Creation time:	15. 06. 2019 20:32

#	Modifying user name:	WinNT
#	Modification time:	15. 06. 2019 20:32

#	Program:	/corina/corina34_cracker 3.40 0067  02.08.2006

@<TRIPOS>MOLECULE
ASD03092652
  47   50    0    0    0
SMALL
NO_CHARGES


@<TRIPOS>ATOM
   1 C1             1.0925     1.6357    -0.8818 C.ar    
   2 C2             1.0121     0.2395    -1.0594 C.ar    
   3 C3             1.7590    -0.6024    -0.2060 C.ar    
   4 C4             2.5438    -0.0013     0.7764 C.ar    
   5 C5             2.5631     1.3811     0.8794 C.ar    
   6 N6             1.8589     2.1435     0.0719 N.ar    
   7 N7            -0.3009     1.1557    -2.5764 N.2     
   8 N8             0.2715     2.1934    -1.8313 N.pl3   
   9 C9             0.1301     0.0074    -2.1366 C.2     
  10 C10            1.7095    -2.0728    -0.3497 C.2     
  11 O11            0.6679    -2.6186    -0.6579 O.2     
  12 N12            2.8191    -2.8082    -0.1390 N.am    
  13 C13            3.6141    -4.9139    -1.0285 C.ar    
  14 C14            2.7548    -4.2039    -0.1995 C.ar    
  15 C15            1.8288    -4.9027     0.5710 C.ar    
  16 C16            1.8039    -6.2847     0.4771 C.ar    
  17 C17            2.6915    -6.9200    -0.3711 C.ar    
  18 N18            3.5565    -6.2291    -1.0880 N.ar    
  19 C19            0.8776    -4.1736     1.4846 C.3     
  20 C20            4.6178    -4.1722    -1.8733 C.3     
  21 C21           -0.3854     6.1790    -2.3835 C.ar    
  22 N22           -0.3620     5.3829    -3.4337 N.ar    
  23 C23           -0.1519     4.0843    -3.2968 C.ar    
  24 C24            0.0461     3.5629    -2.0210 C.ar    
  25 C25            0.0137     4.4383    -0.9388 C.ar    
  26 N26           -0.2024     5.7242    -1.1600 N.ar    
  27 C27            3.4129     2.0265     1.9435 C.3     
  28 C28           -0.2558    -1.3437    -2.6812 C.3     
  29 H29            3.1310    -0.6065     1.4511 H       
  30 H30            3.6623    -2.3694     0.0545 H       
  31 H31            1.0993    -6.8591     1.0602 H       
  32 H32            2.6763    -7.9971    -0.4480 H       
  33 H33           -0.0812    -4.0442     0.9824 H       
  34 H34            0.7346    -4.7525     2.3970 H       
  35 H35            1.2913    -3.1968     1.7351 H       
  36 H36            5.5722    -4.1279    -1.3487 H       
  37 H37            4.7486    -4.6921    -2.8224 H       
  38 H38            4.2585    -3.1602    -2.0599 H       
  39 H39           -0.5550     7.2354    -2.5302 H       
  40 H40           -0.1344     3.4378    -4.1618 H       
  41 H41            0.1628     4.0727     0.0665 H       
  42 H42            4.4090     2.2198     1.5454 H       
  43 H43            2.9563     2.9668     2.2524 H       
  44 H44            3.4880     1.3597     2.8025 H       
  45 H45           -1.0717    -1.7554    -2.0871 H       
  46 H46           -0.5776    -1.2393    -3.7174 H       
  47 H47            0.6027    -2.0135    -2.6331 H       
@<TRIPOS>BOND
   1    1    2 ar
   2    1    6 ar
   3    1    8 1
   4    2    3 ar
   5    2    9 1
   6    3    4 ar
   7    3   10 1
   8    4    5 ar
   9    4   29 1
  10    5    6 ar
  11    5   27 1
  12    7    8 1
  13    7    9 2
  14    8   24 1
  15    9   28 1
  16   10   11 2
  17   10   12 am
  18   12   14 1
  19   12   30 1
  20   13   14 ar
  21   13   18 ar
  22   13   20 1
  23   14   15 ar
  24   15   16 ar
  25   15   19 1
  26   16   17 ar
  27   16   31 1
  28   17   18 ar
  29   17   32 1
  30   19   33 1
  31   19   34 1
  32   19   35 1
  33   20   36 1
  34   20   37 1
  35   20   38 1
  36   21   22 ar
  37   21   26 ar
  38   21   39 1
  39   22   23 ar
  40   23   24 ar
  41   23   40 1
  42   24   25 ar
  43   25   26 ar
  44   25   41 1
  45   27   42 1
  46   27   43 1
  47   27   44 1
  48   28   45 1
  49   28   46 1
  50   28   47 1

#	End of record

