#	Name: ASD01914005
#	Creating user name:	WinNT
#	Creation time:	15. 06. 2019 20:02

#	Modifying user name:	WinNT
#	Modification time:	15. 06. 2019 20:02

#	Program:	/corina/corina34_cracker 3.40 0067  02.08.2006

@<TRIPOS>MOLECULE
ASD01914005
  52   54    0    0    0
SMALL
NO_CHARGES


@<TRIPOS>ATOM
   1 C1            -0.0166     1.3753     0.0096 C.ar    
   2 C2             0.0021    -0.0041     0.0020 C.ar    
   3 C3             1.2214    -0.6850    -0.0133 C.ar    
   4 C4             2.3857     1.4196    -0.0131 C.ar    
   5 C5             1.1688     2.0874     0.0021 C.ar    
   6 O6             3.5475     2.1249    -0.0200 O.3     
   7 C7             3.4413     3.5499    -0.0108 C.3     
   8 C8             4.8209     4.1564    -0.0203 C.ar    
   9 N9             4.9526     5.4691    -0.0140 N.ar    
  10 C10            6.1347     6.0495    -0.0217 C.ar    
  11 C11            7.3010     5.2839    -0.0375 C.ar    
  12 C12            7.1935     3.8879    -0.0445 C.ar    
  13 C13            5.9286     3.3275    -0.0298 C.ar    
  14 C14            8.6279     5.9358    -0.0472 C.2     
  15 N15            8.7182     7.2805    -0.0408 N.am    
  16 O16            9.6374     5.2589    -0.0610 O.2     
  17 C17           10.0331     7.9264    -0.0504 C.3     
  18 C18            9.9085     9.3279    -0.6512 C.3     
  19 C19           10.5606     8.0306     1.3820 C.3     
  20 C20            2.4166     0.0351    -0.0209 C.ar    
  21 C21           11.2817    10.0025    -0.6612 C.3     
  22 C22           11.1570    11.4041    -1.2620 C.3     
  23 C23           10.6295    11.2999    -2.6944 C.3     
  24 C24            9.2563    10.6253    -2.6844 C.3     
  25 C25            9.3810     9.2238    -2.0836 C.3     
  26 C26            1.2450    -2.1168    -0.0208 C.1     
  27 N27            1.2636    -3.2526    -0.0267 N.1     
  28 H28           -0.9601     1.9008     0.0169 H       
  29 H29           -0.9256    -0.5571     0.0083 H       
  30 H30            1.1478     3.1672     0.0078 H       
  31 H31            2.8936     3.8791    -0.8938 H       
  32 H32            2.9103     3.8689     0.8860 H       
  33 H33            6.2019     7.1274    -0.0162 H       
  34 H34            8.0754     3.2645    -0.0568 H       
  35 H35            5.8070     2.2544    -0.0346 H       
  36 H36            7.9126     7.8206    -0.0298 H       
  37 H37           10.7244     7.3342    -0.6500 H       
  38 H38            9.2171     9.9201    -0.0516 H       
  39 H39            9.8693     8.6227     1.9816 H       
  40 H40           10.6494     7.0320     1.8100 H       
  41 H41           11.5389     8.5111     1.3749 H       
  42 H42            3.3627    -0.4856    -0.0324 H       
  43 H43           11.6575    10.0767     0.3593 H       
  44 H44           11.9730     9.4103    -1.2608 H       
  45 H45           10.4657    11.9962    -0.6624 H       
  46 H46           12.1354    11.8846    -1.2692 H       
  47 H47           10.5408    12.2984    -3.1224 H       
  48 H48           11.3209    10.7077    -3.2940 H       
  49 H49            8.5650    11.2175    -2.0848 H       
  50 H50            8.8805    10.5511    -3.7049 H       
  51 H51           10.0723     8.6316    -2.6832 H       
  52 H52            8.4026     8.7432    -2.0765 H       
@<TRIPOS>BOND
   1    1    2 ar
   2    1    5 ar
   3    1   28 1
   4    2    3 ar
   5    2   29 1
   6    3   20 ar
   7    3   26 1
   8    4    5 ar
   9    4    6 1
  10    4   20 ar
  11    5   30 1
  12    6    7 1
  13    7    8 1
  14    7   31 1
  15    7   32 1
  16    8    9 ar
  17    8   13 ar
  18    9   10 ar
  19   10   11 ar
  20   10   33 1
  21   11   12 ar
  22   11   14 1
  23   12   13 ar
  24   12   34 1
  25   13   35 1
  26   14   15 am
  27   14   16 2
  28   15   17 1
  29   15   36 1
  30   17   18 1
  31   17   19 1
  32   17   37 1
  33   18   21 1
  34   18   25 1
  35   18   38 1
  36   19   39 1
  37   19   40 1
  38   19   41 1
  39   20   42 1
  40   21   22 1
  41   21   43 1
  42   21   44 1
  43   22   23 1
  44   22   45 1
  45   22   46 1
  46   23   24 1
  47   23   47 1
  48   23   48 1
  49   24   25 1
  50   24   49 1
  51   24   50 1
  52   25   51 1
  53   25   52 1
  54   26   27 3

#	End of record

