#	Name: ASD01810746
#	Creating user name:	WinNT
#	Creation time:	15. 06. 2019 19:25

#	Modifying user name:	WinNT
#	Modification time:	15. 06. 2019 19:25

#	Program:	/corina/corina34_cracker 3.40 0067  02.08.2006

@<TRIPOS>MOLECULE
ASD01810746
  27   28    0    0    0
SMALL
NO_CHARGES


@<TRIPOS>ATOM
   1 N1            -0.0071     1.4879     0.0125 N.am    
   2 C2            -0.1423     0.0370     0.2096 C.3     
   3 C3             0.9418    -0.4310     1.1418 C.2     
   4 N4             1.9887     0.3246     1.4766 N.am    
   5 C5             2.1739     1.7097     1.0659 C.3     
   6 C6             1.3520     2.0186    -0.1869 C.3     
   7 C7            -1.0840     2.2984     0.0088 C.2     
   8 O8            -2.2022     1.8304     0.1717 O.co2   
   9 O9            -0.9430     3.5019    -0.1574 O.co2   
  10 O10            0.8599    -1.5467     1.6108 O.2     
  11 N11            4.7678    -0.5312     3.5265 N.pl3   
  12 N12            4.1113    -1.7640     3.4208 N.2     
  13 C13            3.0461    -1.6016     2.6789 C.2     
  14 C14            2.9843    -0.2573     2.2839 C.2     
  15 C15            4.0556     0.3828     2.8181 C.2     
  16 C16            6.0008    -0.2723     4.2741 C.3     
  17 H17           -1.1174    -0.1832     0.6440 H       
  18 H18           -0.0444    -0.4724    -0.7491 H       
  19 H19            1.8574     2.3689     1.8742 H       
  20 H20            3.2290     1.8832     0.8547 H       
  21 H21            1.8096     1.5418    -1.0538 H       
  22 H22            1.3070     3.0968    -0.3406 H       
  23 H23            2.3358    -2.3713     2.4154 H       
  24 H24            4.2975     1.4289     2.7013 H       
  25 H25            6.8605    -0.4309     3.6231 H       
  26 H26            6.0001     0.7578     4.6305 H       
  27 H27            6.0592    -0.9510     5.1249 H       
@<TRIPOS>BOND
   1    1    2 1
   2    1    6 1
   3    1    7 am
   4    2    3 1
   5    2   17 1
   6    2   18 1
   7    3    4 am
   8    3   10 2
   9    4    5 1
  10    4   14 1
  11    5    6 1
  12    5   19 1
  13    5   20 1
  14    6   21 1
  15    6   22 1
  16    7    8 ar
  17    7    9 ar
  18   11   12 1
  19   11   15 1
  20   11   16 1
  21   12   13 2
  22   13   14 1
  23   13   23 1
  24   14   15 2
  25   15   24 1
  26   16   25 1
  27   16   26 1
  28   16   27 1

#	End of record

