#	Name: ASD02198263
#	Creating user name:	WinNT
#	Creation time:	15. 06. 2019 20:19

#	Modifying user name:	WinNT
#	Modification time:	15. 06. 2019 20:19

#	Program:	/corina/corina34_cracker 3.40 0067  02.08.2006

@<TRIPOS>MOLECULE
ASD02198263
  44   47    0    0    0
SMALL
NO_CHARGES


@<TRIPOS>ATOM
   1 C1             0.1143     1.7457     0.8437 C.2     
   2 C2             0.0544     0.3623     0.9853 C.2     
   3 C3            -1.1796    -0.2590     1.2975 C.2     
   4 S4             1.7039     2.2547     0.4687 S.3     
   5 C5             2.3351     0.6217     0.4912 C.2     
   6 C6             1.3500    -0.2699     0.7774 C.2     
   7 C7             3.6839     0.2778     0.2450 C.2     
   8 N8             4.5621     1.2261    -0.1370 N.am    
   9 O9             4.0525    -0.8757     0.3781 O.2     
  10 N10            1.5568    -1.6383     0.8622 N.pl3   
  11 N11           -1.0164     2.5150     1.0102 N.am    
  12 C12           -2.3177     0.5174     1.4595 C.2     
  13 C13           -2.2047     1.9696     1.3113 C.2     
  14 O14           -3.1859     2.6779     1.4520 O.2     
  15 C15            4.1191     2.5292    -0.3894 C.ar    
  16 C16            5.9171     0.9075    -0.2812 C.ar    
  17 C17            4.3289     3.5299     0.5506 C.ar    
  18 C18            3.4736     2.8259    -1.5829 C.ar    
  19 C19            3.8904     4.8150     0.2984 C.ar    
  20 C20            3.2430     5.1059    -0.8884 C.ar    
  21 C21            3.0376     4.1130    -1.8289 C.ar    
  22 C22            6.3378    -0.4113    -0.1679 C.ar    
  23 C23            6.8433     1.9087    -0.5435 C.ar    
  24 C24            8.1798     1.5909    -0.6852 C.ar    
  25 C25            8.5962     0.2776    -0.5662 C.ar    
  26 C26            7.6758    -0.7224    -0.3107 C.ar    
  27 C27           -3.6080    -0.1040     1.7828 C.2     
  28 O28           -4.7059     0.6634     1.9373 O.3     
  29 O29           -3.6865    -1.3105     1.9112 O.2     
  30 H30           -1.2342    -1.3319     1.4086 H       
  31 H31            2.4423    -2.0051     0.7133 H       
  32 H32            0.8159    -2.2287     1.0703 H       
  33 H33           -0.9516     3.4773     0.9072 H       
  34 H34            4.8342     3.3034     1.4779 H       
  35 H35            3.3132     2.0510    -2.3179 H       
  36 H36            4.0529     5.5935     1.0291 H       
  37 H37            2.9010     6.1116    -1.0832 H       
  38 H38            2.5316     4.3434    -2.7548 H       
  39 H39            5.6195    -1.1927     0.0320 H       
  40 H40            6.5187     2.9345    -0.6369 H       
  41 H41            8.9005     2.3689    -0.8896 H       
  42 H42            9.6420     0.0317    -0.6775 H       
  43 H43            8.0042    -1.7470    -0.2180 H       
  44 H44           -5.5326     0.2090     2.1498 H       
@<TRIPOS>BOND
   1    1    2 2
   2    1    4 1
   3    1   11 1
   4    2    3 1
   5    2    6 1
   6    3   12 2
   7    3   30 1
   8    4    5 1
   9    5    6 2
  10    5    7 1
  11    6   10 1
  12    7    8 am
  13    7    9 2
  14    8   15 1
  15    8   16 1
  16   10   31 1
  17   10   32 1
  18   11   13 am
  19   11   33 1
  20   12   13 1
  21   12   27 1
  22   13   14 2
  23   15   17 ar
  24   15   18 ar
  25   16   22 ar
  26   16   23 ar
  27   17   19 ar
  28   17   34 1
  29   18   21 ar
  30   18   35 1
  31   19   20 ar
  32   19   36 1
  33   20   21 ar
  34   20   37 1
  35   21   38 1
  36   22   26 ar
  37   22   39 1
  38   23   24 ar
  39   23   40 1
  40   24   25 ar
  41   24   41 1
  42   25   26 ar
  43   25   42 1
  44   26   43 1
  45   27   28 1
  46   27   29 2
  47   28   44 1

#	End of record

