#	Name: ASD01911221
#	Creating user name:	WinNT
#	Creation time:	15. 06. 2019 19:57

#	Modifying user name:	WinNT
#	Modification time:	15. 06. 2019 19:57

#	Program:	/corina/corina34_cracker 3.40 0067  02.08.2006

@<TRIPOS>MOLECULE
ASD01911221
  41   44    0    0    0
SMALL
NO_CHARGES


@<TRIPOS>ATOM
   1 C1            -0.0187     1.5277     0.0104 C.3     
   2 C2             0.0021    -0.0041     0.0020 C.3     
   3 N3             0.8243    -0.4720     1.1261 N.am    
   4 C4             2.1940     0.0421     1.2616 C.3     
   5 C5             2.1487     1.5734     1.2559 C.3     
   6 C6             1.4185     2.0534    -0.0005 C.3     
   7 C7             0.3314    -1.3558     2.0163 C.2     
   8 O8             1.0202    -1.7345     2.9399 O.2     
   9 C9            -1.0756    -1.8736     1.8639 C.3     
  10 C10           -1.4863    -2.8727     2.9585 C.3     
  11 C11           -2.8609    -2.1834     2.9619 C.3     
  12 C12           -2.1452    -0.9281     2.4357 C.3     
  13 C13            3.5537     2.1182     1.2603 C.2     
  14 N14            4.0836     2.8936     2.1725 N.2     
  15 C15            5.3526     3.1246     1.7609 C.2     
  16 N16            5.5148     2.4798     0.6317 N.2     
  17 O17            4.4939     1.8954     0.3364 O.3     
  18 C18            6.3640     3.9484     2.4543 C.2     
  19 C19            7.6233     4.1627     2.0220 C.2     
  20 C20            8.3843     4.9691     2.8406 C.2     
  21 C21            7.7600     5.4151     3.9357 C.2     
  22 S22            6.1098     4.8080     3.9677 S.3     
  23 H23           -0.5451     1.8893    -0.8729 H       
  24 H24           -0.5281     1.8797     0.9075 H       
  25 H25           -1.0139    -0.3839     0.1095 H       
  26 H26            0.4296    -0.3586    -0.9359 H       
  27 H27            2.6242    -0.3072     2.2002 H       
  28 H28            2.8003    -0.3086     0.4265 H       
  29 H29            1.6189     1.9249     2.1413 H       
  30 H30            1.9348     1.6808    -0.8852 H       
  31 H31            1.4064     3.1432    -0.0193 H       
  32 H32           -1.2921    -2.2198     0.8533 H       
  33 H33           -1.5174    -3.9070     2.6162 H       
  34 H34           -0.9343    -2.7506     3.8905 H       
  35 H35           -3.5669    -2.6136     2.2515 H       
  36 H36           -3.2845    -2.0589     3.9585 H       
  37 H37           -1.7734    -0.2744     3.2247 H       
  38 H38           -2.7083    -0.3926     1.6712 H       
  39 H39            8.0055     3.7357     1.1066 H       
  40 H40            9.4097     5.2219     2.6143 H       
  41 H41            8.2013     6.0551     4.6854 H       
@<TRIPOS>BOND
   1    1    2 1
   2    1    6 1
   3    1   23 1
   4    1   24 1
   5    2    3 1
   6    2   25 1
   7    2   26 1
   8    3    4 1
   9    3    7 am
  10    4    5 1
  11    4   27 1
  12    4   28 1
  13    5    6 1
  14    5   13 1
  15    5   29 1
  16    6   30 1
  17    6   31 1
  18    7    8 2
  19    7    9 1
  20    9   10 1
  21    9   12 1
  22    9   32 1
  23   10   11 1
  24   10   33 1
  25   10   34 1
  26   11   12 1
  27   11   35 1
  28   11   36 1
  29   12   37 1
  30   12   38 1
  31   13   14 2
  32   13   17 1
  33   14   15 1
  34   15   16 2
  35   15   18 1
  36   16   17 1
  37   18   19 2
  38   18   22 1
  39   19   20 1
  40   19   39 1
  41   20   21 2
  42   20   40 1
  43   21   22 1
  44   21   41 1

#	End of record

