#	Name: ASD01885143
#	Creating user name:	WinNT
#	Creation time:	15. 06. 2019 19:49

#	Modifying user name:	WinNT
#	Modification time:	15. 06. 2019 19:49

#	Program:	/corina/corina34_cracker 3.40 0067  02.08.2006

@<TRIPOS>MOLECULE
ASD01885143
  53   58    0    0    0
SMALL
NO_CHARGES


@<TRIPOS>ATOM
   1 C1            -0.0170     1.4050     0.0098 C.2     
   2 C2             1.1991    -0.6521    -0.0129 C.2     
   3 C3             2.3930     0.0893    -0.0203 C.2     
   4 C4             2.3588     1.4383    -0.0121 C.2     
   5 N5             1.1665     2.1012     0.0022 N.pl3   
   6 C6             0.8241     3.4179     0.0118 C.2     
   7 N7            -0.4823     3.4846     0.0242 N.2     
   8 N8            -0.9895     2.3020     0.0186 N.2     
   9 C9             1.7760     4.5862     0.0091 C.3     
  10 C10            1.2438    -2.1584    -0.0214 C.3     
  11 C11            2.0853     4.9887    -1.4342 C.3     
  12 N12            1.3658    -2.6368    -1.4050 N.3     
  13 C13            1.6496    -4.0773    -1.4406 C.3     
  14 C14            1.6080    -4.5691    -2.8907 C.3     
  15 C15            2.6182    -3.7871    -3.7193 C.3     
  16 C16            2.3686    -2.2885    -3.6122 C.3     
  17 C17            2.3849    -1.8742    -2.1376 C.3     
  18 C18            0.0021    -0.0041     0.0020 C.2     
  19 Cl19          -1.4832    -0.9027     0.0119 Cl      
  20 C20            2.9455     6.2352    -1.6511 C.3     
  21 C21            3.5315     4.8463    -1.9129 C.3     
  22 C22            3.9191    -4.4083    -5.5460 C.ar    
  23 O23            4.7748    -4.1135    -4.5302 O.3     
  24 C24            4.0552    -4.1281    -3.2836 C.3     
  25 C25            2.5938    -4.2343    -5.1627 C.ar    
  26 N26            1.6077    -4.4556    -6.0056 N.ar    
  27 C27            1.8263    -4.8571    -7.2426 C.ar    
  28 C28            3.1150    -5.0612    -7.6999 C.ar    
  29 C29            4.1816    -4.8365    -6.8473 C.ar    
  30 H30            3.3434    -0.4236    -0.0323 H       
  31 H31            3.2826     1.9976    -0.0175 H       
  32 H32            1.3201     5.4274     0.5312 H       
  33 H33            2.6999     4.3031     0.5133 H       
  34 H34            2.1016    -2.4997     0.5580 H       
  35 H35            0.3278    -2.5516     0.4195 H       
  36 H36            1.2938     4.7914    -2.1572 H       
  37 H37            2.6387    -4.2634    -1.0220 H       
  38 H38            0.9007    -4.6100    -0.8545 H       
  39 H39            1.8557    -5.6301    -2.9221 H       
  40 H40            0.6083    -4.4168    -3.2977 H       
  41 H41            3.1496    -1.7505    -4.1496 H       
  42 H42            1.3977    -2.0497    -4.0462 H       
  43 H43            2.1695    -0.8088    -2.0570 H       
  44 H44            3.3676    -2.0797    -1.7132 H       
  45 H45            2.7203     6.8578    -2.5170 H       
  46 H46            3.2911     6.7685    -0.7655 H       
  47 H47            4.2626     4.4659    -1.1995 H       
  48 H48            3.6917     4.5551    -2.9510 H       
  49 H49            4.4435    -3.3693    -2.6042 H       
  50 H50            4.0960    -5.1162    -2.8252 H       
  51 H51            0.9905    -5.0285    -7.9048 H       
  52 H52            3.2876    -5.3932    -8.7130 H       
  53 H53            5.1967    -4.9893    -7.1827 H       
@<TRIPOS>BOND
   1    1   18 1
   2    1    5 1
   3    1    8 2
   4    2    3 1
   5    2   10 1
   6    2   18 2
   7    3    4 2
   8    3   30 1
   9    4    5 1
  10    4   31 1
  11    5    6 1
  12    6    7 2
  13    6    9 1
  14    7    8 1
  15    9   11 1
  16    9   32 1
  17    9   33 1
  18   10   12 1
  19   10   34 1
  20   10   35 1
  21   11   20 1
  22   11   21 1
  23   11   36 1
  24   12   13 1
  25   12   17 1
  26   13   14 1
  27   13   37 1
  28   13   38 1
  29   14   15 1
  30   14   39 1
  31   14   40 1
  32   15   16 1
  33   15   25 1
  34   15   24 1
  35   16   17 1
  36   16   41 1
  37   16   42 1
  38   17   43 1
  39   17   44 1
  40   18   19 1
  41   20   21 1
  42   20   45 1
  43   20   46 1
  44   21   47 1
  45   21   48 1
  46   22   23 1
  47   22   25 ar
  48   22   29 ar
  49   23   24 1
  50   24   49 1
  51   24   50 1
  52   25   26 ar
  53   26   27 ar
  54   27   28 ar
  55   27   51 1
  56   28   29 ar
  57   28   52 1
  58   29   53 1

#	End of record

