#	Name: ASD02690043
#	Creating user name:	WinNT
#	Creation time:	15. 06. 2019 20:26

#	Modifying user name:	WinNT
#	Modification time:	15. 06. 2019 20:26

#	Program:	/corina/corina34_cracker 3.40 0067  02.08.2006

@<TRIPOS>MOLECULE
ASD02690043
  62   65    0    0    0
SMALL
NO_CHARGES


@<TRIPOS>ATOM
   1 C1             0.0043     1.2406     0.0663 C.2     
   2 O2             0.0151     0.0308    -0.0197 O.2     
   3 C3             1.2693     1.9827     0.1429 C.ar    
   4 C4             2.4894     1.2958     0.1169 C.ar    
   5 C5             3.6677     1.9934     0.1888 C.ar    
   6 C6             3.6525     3.3806     0.2874 C.ar    
   7 C7             2.4435     4.0675     0.3136 C.ar    
   8 C8             1.2597     3.3799     0.2365 C.ar    
   9 O9             4.8211     4.0660     0.3587 O.3     
  10 C10            4.7336     5.4888     0.4585 C.3     
  11 N11           -4.0827     2.0913     0.8777 N.3     
  12 C12           -3.7238     1.8748    -0.5297 C.3     
  13 C13           -2.3817     1.1436    -0.6086 C.3     
  14 C14           -1.3071     1.9828     0.0882 C.3     
  15 C15           -1.7283     2.2347     1.5386 C.3     
  16 C16           -3.0893     2.9343     1.5553 C.3     
  17 N17           -8.1421     2.4528     1.9611 N.3     
  18 C18           -7.8542     2.2969     0.5296 C.3     
  19 C19           -6.4473     1.7219     0.3506 C.3     
  20 C20           -5.4292     2.6666     0.9951 C.3     
  21 C21           -5.7801     2.8501     2.4742 C.3     
  22 C22           -7.2063     3.3924     2.5917 C.3     
  23 O23           -6.3724     0.4401     0.9778 O.3     
  24 C24           -9.5336     2.8719     2.1756 C.3     
  25 C25           -9.8640     2.7847     3.6433 C.ar    
  26 C26           -9.6517     3.8758     4.4652 C.ar    
  27 C27           -9.9547     3.7971     5.8112 C.ar    
  28 C28          -10.4711     2.6248     6.3366 C.ar    
  29 C29          -10.6833     1.5326     5.5125 C.ar    
  30 C30          -10.3845     1.6154     4.1658 C.ar    
  31 F31          -10.7672     2.5465     7.6524 F       
  32 H32            2.5023     0.2186     0.0408 H       
  33 H33            4.6092     1.4646     0.1692 H       
  34 H34            2.4371     5.1447     0.3907 H       
  35 H35            0.3215     3.9146     0.2524 H       
  36 H36            4.2156     5.8832    -0.4158 H       
  37 H37            4.1816     5.7566     1.3594 H       
  38 H38            5.7369     5.9119     0.5079 H       
  39 H39           -4.4940     1.2732    -1.0124 H       
  40 H40           -3.6437     2.8366    -1.0362 H       
  41 H41           -2.4650     0.1757    -0.1142 H       
  42 H42           -2.1081     0.9969    -1.6534 H       
  43 H43           -1.1955     2.9350    -0.4303 H       
  44 H44           -1.8013     1.2840     2.0668 H       
  45 H45           -0.9879     2.8676     2.0279 H       
  46 H46           -3.0122     3.8911     1.0390 H       
  47 H47           -3.3987     3.1023     2.5869 H       
  48 H48           -8.5828     1.6195     0.0842 H       
  49 H49           -7.9146     3.2684     0.0391 H       
  50 H50           -6.2280     1.6209    -0.7124 H       
  51 H51           -5.4580     3.6323     0.4905 H       
  52 H52           -5.7125     1.8901     2.9861 H       
  53 H53           -5.0841     3.5552     2.9286 H       
  54 H54           -7.2697     4.3588     2.0915 H       
  55 H55           -7.4644     3.5107     3.6441 H       
  56 H56           -6.9934    -0.2095     0.6206 H       
  57 H57           -9.6601     3.8997     1.8352 H       
  58 H58          -10.2007     2.2184     1.6135 H       
  59 H59           -9.2485     4.7901     4.0552 H       
  60 H60           -9.7884     4.6496     6.4531 H       
  61 H61          -11.0861     0.6176     5.9213 H       
  62 H62          -10.5538     0.7649     3.5220 H       
@<TRIPOS>BOND
   1    1    2 2
   2    1    3 1
   3    1   14 1
   4    3    4 ar
   5    3    8 ar
   6    4    5 ar
   7    4   32 1
   8    5    6 ar
   9    5   33 1
  10    6    7 ar
  11    6    9 1
  12    7    8 ar
  13    7   34 1
  14    8   35 1
  15    9   10 1
  16   10   36 1
  17   10   37 1
  18   10   38 1
  19   11   12 1
  20   11   16 1
  21   11   20 1
  22   12   13 1
  23   12   39 1
  24   12   40 1
  25   13   14 1
  26   13   41 1
  27   13   42 1
  28   14   15 1
  29   14   43 1
  30   15   16 1
  31   15   44 1
  32   15   45 1
  33   16   46 1
  34   16   47 1
  35   17   18 1
  36   17   22 1
  37   17   24 1
  38   18   19 1
  39   18   48 1
  40   18   49 1
  41   19   20 1
  42   19   23 1
  43   19   50 1
  44   20   21 1
  45   20   51 1
  46   21   22 1
  47   21   52 1
  48   21   53 1
  49   22   54 1
  50   22   55 1
  51   23   56 1
  52   24   25 1
  53   24   57 1
  54   24   58 1
  55   25   26 ar
  56   25   30 ar
  57   26   27 ar
  58   26   59 1
  59   27   28 ar
  60   27   60 1
  61   28   29 ar
  62   28   31 1
  63   29   30 ar
  64   29   61 1
  65   30   62 1

#	End of record

