#	Name: ASD08830261
#	Creating user name:	WinNT
#	Creation time:	15. 06. 2019 21:20

#	Modifying user name:	WinNT
#	Modification time:	15. 06. 2019 21:20

#	Program:	/corina/corina34_cracker 3.40 0067  02.08.2006

@<TRIPOS>MOLECULE
ASD08830261
  74   79    0    0    0
SMALL
NO_CHARGES


@<TRIPOS>ATOM
   1 C1             0.2222     1.4567    -0.1847 C.ar    
   2 C2             0.2956     0.0808    -0.1061 C.ar    
   3 C3             1.5374    -0.5470    -0.0023 C.ar    
   4 C4             2.7010     0.2192     0.0212 C.ar    
   5 C5             2.6177     1.6012    -0.0587 C.ar    
   6 C6             1.3763     2.2173    -0.1614 C.ar    
   7 C7             1.6184    -2.0234     0.0831 C.ar    
   8 C8             0.6299    -2.7619     0.7652 C.ar    
   9 C9             0.7571    -4.1658     0.8147 C.ar    
  10 N10            1.7992    -4.7385     0.2188 N.ar    
  11 C11            2.7028    -4.0060    -0.4104 C.ar    
  12 N12            2.6213    -2.6834    -0.4861 N.ar    
  13 N13            3.7721    -4.6435    -1.0173 N.pl3   
  14 N14            3.7826     2.3747    -0.0351 N.am    
  15 C15            4.8316     1.9903     0.7189 C.2     
  16 C16            6.0182     2.8528     0.8221 C.2     
  17 C17            7.0535     2.4735     1.5662 C.2     
  18 O18            4.7967     0.9301     1.3139 O.2     
  19 C19           -0.5483    -2.4293     1.4673 C.2     
  20 N20           -1.0923    -3.5284     1.9061 N.2     
  21 N21           -0.3136    -4.6275     1.5226 N.pl3   
  22 C22           -0.5999    -6.0313     1.8285 C.3     
  23 C23           -0.2748    -6.3101     3.2983 C.3     
  24 C24           -0.6331    -7.7629     3.6258 C.3     
  25 C25           -2.1120    -7.9976     3.3029 C.3     
  26 C26           -2.3662    -7.6537     1.8329 C.3     
  27 O27           -1.9831    -6.2988     1.5890 O.3     
  28 C28            4.6806    -3.9071    -1.7884 C.ar    
  29 C29            6.0248    -4.2556    -1.7988 C.ar    
  30 C30            6.9204    -3.5295    -2.5585 C.ar    
  31 C31            6.4769    -2.4510    -3.3126 C.ar    
  32 C32            5.1325    -2.1028    -3.3026 C.ar    
  33 C33            4.2361    -2.8322    -2.5469 C.ar    
  34 N34            7.3847    -1.7147    -4.0823 N.3     
  35 C35            6.7065    -0.6241    -4.7965 C.3     
  36 C36            7.7425     0.2032    -5.5612 C.3     
  37 N37            8.4652    -0.6673    -6.4990 N.3     
  38 C38            9.1434    -1.7580    -5.7848 C.3     
  39 C39            8.1074    -2.5852    -5.0201 C.3     
  40 C40            9.4181     0.1055    -7.3069 C.3     
  41 H41           -0.7396     1.9405    -0.2691 H       
  42 H42           -0.6083    -0.5100    -0.1246 H       
  43 H43            3.6647    -0.2616     0.1018 H       
  44 H44            1.3130     3.2937    -0.2239 H       
  45 H45            3.8919    -5.5999    -0.9084 H       
  46 H46            3.8357     3.1878    -0.5613 H       
  47 H47            6.0491     3.7943     0.2938 H       
  48 H48            7.9249     3.1069     1.6420 H       
  49 H49            7.0225     1.5320     2.0946 H       
  50 H50           -0.9338    -1.4315     1.6160 H       
  51 H51            0.0100    -6.6735     1.1932 H       
  52 H52            0.7891    -6.1491     3.4729 H       
  53 H53           -0.8545    -5.6399     3.9331 H       
  54 H54           -0.0180    -8.4342     3.0265 H       
  55 H55           -0.4566    -7.9522     4.6846 H       
  56 H56           -2.3621    -9.0435     3.4808 H       
  57 H57           -2.7288    -7.3616     3.9378 H       
  58 H58           -1.7795    -8.3173     1.1977 H       
  59 H59           -3.4255    -7.7780     1.6085 H       
  60 H60            6.3697    -5.0944    -1.2124 H       
  61 H61            7.9659    -3.8001    -2.5660 H       
  62 H62            4.7876    -1.2639    -3.8887 H       
  63 H63            3.1906    -2.5614    -2.5391 H       
  64 H64            5.9851    -1.0424    -5.4985 H       
  65 H65            6.1891     0.0136    -4.0797 H       
  66 H66            7.2385     0.9953    -6.1149 H       
  67 H67            8.4479     0.6437    -4.8566 H       
  68 H68            9.6608    -2.3956    -6.5016 H       
  69 H69            9.8648    -1.3397    -5.0828 H       
  70 H70            8.6114    -3.3773    -4.4664 H       
  71 H71            7.4020    -3.0258    -5.7247 H       
  72 H72           10.1417     0.5897    -6.6510 H       
  73 H73            9.9393    -0.5629    -7.9923 H       
  74 H74            8.8805     0.8632    -7.8769 H       
@<TRIPOS>BOND
   1    1    2 ar
   2    1    6 ar
   3    1   41 1
   4    2    3 ar
   5    2   42 1
   6    3    4 ar
   7    3    7 1
   8    4    5 ar
   9    4   43 1
  10    5    6 ar
  11    5   14 1
  12    6   44 1
  13    7    8 ar
  14    7   12 ar
  15    8    9 ar
  16    8   19 1
  17    9   10 ar
  18    9   21 1
  19   10   11 ar
  20   11   12 ar
  21   11   13 1
  22   13   28 1
  23   13   45 1
  24   14   15 am
  25   14   46 1
  26   15   16 1
  27   15   18 2
  28   16   17 2
  29   16   47 1
  30   17   48 1
  31   17   49 1
  32   19   20 2
  33   19   50 1
  34   20   21 1
  35   21   22 1
  36   22   23 1
  37   22   27 1
  38   22   51 1
  39   23   24 1
  40   23   52 1
  41   23   53 1
  42   24   25 1
  43   24   54 1
  44   24   55 1
  45   25   26 1
  46   25   56 1
  47   25   57 1
  48   26   27 1
  49   26   58 1
  50   26   59 1
  51   28   29 ar
  52   28   33 ar
  53   29   30 ar
  54   29   60 1
  55   30   31 ar
  56   30   61 1
  57   31   32 ar
  58   31   34 1
  59   32   33 ar
  60   32   62 1
  61   33   63 1
  62   34   35 1
  63   34   39 1
  64   35   36 1
  65   35   64 1
  66   35   65 1
  67   36   37 1
  68   36   66 1
  69   36   67 1
  70   37   38 1
  71   37   40 1
  72   38   39 1
  73   38   68 1
  74   38   69 1
  75   39   70 1
  76   39   71 1
  77   40   72 1
  78   40   73 1
  79   40   74 1

#	End of record

