#	Name: ASD00111060
#	Creating user name:	WinNT
#	Creation time:	15. 06. 2019 18:30

#	Modifying user name:	WinNT
#	Modification time:	15. 06. 2019 18:30

#	Program:	/corina/corina34_cracker 3.40 0067  02.08.2006

@<TRIPOS>MOLECULE
ASD00111060
  36   37    0    0    0
SMALL
NO_CHARGES


@<TRIPOS>ATOM
   1 N1             0.2938     1.5591     0.0549 N.am    
   2 C2             0.1639     0.1070    -0.0171 C.3     
   3 C3             0.6302    -0.5204     1.3012 C.3     
   4 C4             2.1404    -0.6033     1.2905 C.ar    
   5 C5             2.8973     0.5381     1.3936 C.ar    
   6 C6             2.2276     1.8885     1.5188 C.3     
   7 C7             1.5788     2.2408     0.1755 C.3     
   8 C8             4.2784     0.4628     1.3849 C.ar    
   9 C9             4.8992    -0.7727     1.2711 C.ar    
  10 C10            4.1326    -1.9252     1.1665 C.ar    
  11 C11            2.7525    -1.8396     1.1764 C.ar    
  12 C12            0.1721     0.3491     2.4738 C.3     
  13 O13            6.2560    -0.8544     1.2617 O.3     
  14 C14            6.9806     0.3722     1.3727 C.3     
  15 Cl15           4.9060    -3.4728     1.0228 Cl      
  16 C16           -0.8264     2.3066     0.0019 C.2     
  17 O17           -1.9090     1.7702    -0.1031 O.2     
  18 C18           -0.7336     3.8091     0.0733 C.3     
  19 F19           -2.0177     4.3596    -0.0006 F       
  20 F20           -0.1349     4.1825     1.2812 F       
  21 F21            0.0377     4.2799    -0.9947 F       
  22 H22           -0.8790    -0.1553    -0.1946 H       
  23 H23            0.7764    -0.2716    -0.8354 H       
  24 H24            0.2097    -1.5212     1.3988 H       
  25 H25            1.4629     1.8470     2.2944 H       
  26 H26            2.9712     2.6432     1.7750 H       
  27 H27            2.2338     1.9262    -0.6370 H       
  28 H28            1.4243     3.3183     0.1190 H       
  29 H29            4.8710     1.3621     1.4659 H       
  30 H30            2.1538    -2.7348     1.0953 H       
  31 H31           -0.7893    -0.0114     2.8396 H       
  32 H32            0.9090     0.2958     3.2753 H       
  33 H33            0.0703     1.3824     2.1420 H       
  34 H34            6.7207     1.0245     0.5389 H       
  35 H35            6.7233     0.8626     2.3115 H       
  36 H36            8.0506     0.1653     1.3522 H       
@<TRIPOS>BOND
   1    1    2 1
   2    1    7 1
   3    1   16 am
   4    2    3 1
   5    2   22 1
   6    2   23 1
   7    3    4 1
   8    3   12 1
   9    3   24 1
  10    4    5 ar
  11    4   11 ar
  12    5    6 1
  13    5    8 ar
  14    6    7 1
  15    6   25 1
  16    6   26 1
  17    7   27 1
  18    7   28 1
  19    8    9 ar
  20    8   29 1
  21    9   10 ar
  22    9   13 1
  23   10   11 ar
  24   10   15 1
  25   11   30 1
  26   12   31 1
  27   12   32 1
  28   12   33 1
  29   13   14 1
  30   14   34 1
  31   14   35 1
  32   14   36 1
  33   16   17 2
  34   16   18 1
  35   18   19 1
  36   18   20 1
  37   18   21 1

#	End of record

