#	Name: ASD01150260
#	Creating user name:	WinNT
#	Creation time:	15. 06. 2019 19:03

#	Modifying user name:	WinNT
#	Modification time:	15. 06. 2019 19:03

#	Program:	/corina/corina34_cracker 3.40 0067  02.08.2006

@<TRIPOS>MOLECULE
ASD01150260
  22   22    0    0    0
SMALL
NO_CHARGES


@<TRIPOS>ATOM
   1 C1            -0.1102     1.9791     0.6920 C.2     
   2 N2            -1.2165     2.4260     0.0210 N.pl3   
   3 C3            -2.3688     1.6352    -0.0326 C.ar    
   4 C4            -3.6212     2.2197     0.1045 C.ar    
   5 C5            -4.7570     1.4359     0.0512 C.ar    
   6 C6            -4.6483     0.0705    -0.1386 C.ar    
   7 C7            -3.4029    -0.5148    -0.2750 C.ar    
   8 C8            -2.2634     0.2642    -0.2288 C.ar    
   9 S9            -0.1834     0.4765     1.6093 S.3     
  10 N10            1.0152     2.6724     0.6474 N.2     
  11 C11            1.0715     3.8279    -0.0580 C.1     
  12 C12            1.5122     0.4098     2.2391 C.3     
  13 N13            1.1187     4.7967    -0.6494 N.1     
  14 H14           -1.2013     3.2912    -0.4173 H       
  15 H15           -3.7067     3.2860     0.2531 H       
  16 H16           -5.7311     1.8898     0.1581 H       
  17 H17           -5.5381    -0.5403    -0.1799 H       
  18 H18           -3.3214    -1.5815    -0.4227 H       
  19 H19           -1.2910    -0.1934    -0.3354 H       
  20 H20            2.2099     0.3842     1.4021 H       
  21 H21            1.7082     1.2918     2.8488 H       
  22 H22            1.6394    -0.4868     2.8458 H       
@<TRIPOS>BOND
   1    1    9 1
   2    1   10 2
   3    1    2 1
   4    2    3 1
   5    2   14 1
   6    3    4 ar
   7    3    8 ar
   8    4    5 ar
   9    4   15 1
  10    5    6 ar
  11    5   16 1
  12    6    7 ar
  13    6   17 1
  14    7    8 ar
  15    7   18 1
  16    8   19 1
  17    9   12 1
  18   10   11 1
  19   11   13 3
  20   12   20 1
  21   12   21 1
  22   12   22 1

#	End of record

