#	Name: ASD01000003
#	Creating user name:	WinNT
#	Creation time:	15. 06. 2019 18:54

#	Modifying user name:	WinNT
#	Modification time:	15. 06. 2019 18:54

#	Program:	/corina/corina34_cracker 3.40 0067  02.08.2006

@<TRIPOS>MOLECULE
ASD01000003
  12   12    0    0    0
SMALL
NO_CHARGES


@<TRIPOS>ATOM
   1 F1             0.0021    -0.0041     0.0020 F       
   2 C2            -0.0162     1.3468     0.0094 C.2     
   3 C3             1.1386     2.0472     0.0022 C.2     
   4 N4             1.1007     3.4174     0.0094 N.am    
   5 C5            -0.0757     4.0701     0.0237 C.2     
   6 O6            -0.0862     5.2860     0.0299 O.2     
   7 N7            -1.2410     3.3968     0.0308 N.am    
   8 C8            -1.2477     2.0485     0.0190 C.2     
   9 O9            -2.3022     1.4392     0.0250 O.2     
  10 H10            2.0868     1.5303    -0.0089 H       
  11 H11            1.9297     3.9211     0.0045 H       
  12 H12           -2.0799     3.8837     0.0407 H       
@<TRIPOS>BOND
   1    1    2 1
   2    2    3 2
   3    2    8 1
   4    3    4 1
   5    3   10 1
   6    4    5 am
   7    4   11 1
   8    5    6 2
   9    5    7 am
  10    7    8 am
  11    7   12 1
  12    8    9 2

#	End of record

