#	Name: ASD01340008
#	Creating user name:	WinNT
#	Creation time:	15. 06. 2019 19:16

#	Modifying user name:	WinNT
#	Modification time:	15. 06. 2019 19:16

#	Program:	/corina/corina34_cracker 3.40 0067  02.08.2006

@<TRIPOS>MOLECULE
ASD01340008
  79   84    0    0    0
SMALL
NO_CHARGES


@<TRIPOS>ATOM
   1 C1             0.1202     1.5508     0.3882 C.ar    
   2 C2            -0.8701     1.7339     1.3459 C.ar    
   3 C3            -2.0414     1.0107     1.2755 C.ar    
   4 C4            -2.2325     0.0937     0.2402 C.ar    
   5 C5            -1.2358    -0.0874    -0.7205 C.ar    
   6 C6            -0.0689     0.6426    -0.6467 C.ar    
   7 N7             1.3081     2.2867     0.4628 N.am    
   8 C8             2.4715     1.7297     0.0720 C.2     
   9 O9             2.5055     0.5591    -0.2552 O.2     
  10 N10            3.5972     2.4702     0.0440 N.am    
  11 O11            4.8196     1.8850    -0.3665 O.3     
  12 C12            5.9298     2.7846    -0.3479 C.3     
  13 C13           -4.7121    -0.1546     0.2072 C.2     
  14 C14           -3.4871    -0.6840     0.1617 C.2     
  15 S15           -3.5697    -2.4268    -0.0044 S.3     
  16 C16           -5.2769    -2.4289    -0.0114 C.2     
  17 C17           -5.7694    -1.1412     0.1149 C.2     
  18 N18           -6.1734    -3.4831    -0.1156 N.am    
  19 C19           -7.4978    -3.2749    -0.1014 C.2     
  20 N20           -8.0258    -2.0455     0.0129 N.am    
  21 C21           -7.2348    -0.9621     0.1264 C.2     
  22 O22           -8.2446    -4.2299    -0.1956 O.2     
  23 C23           -5.6627    -4.8501    -0.2441 C.3     
  24 C24           -4.1378    -5.8703     3.0597 C.ar    
  25 C25           -5.1822    -6.5621     3.6434 C.ar    
  26 C26           -6.3817    -6.7013     2.9711 C.ar    
  27 C27           -6.5385    -6.1469     1.7119 C.ar    
  28 C28           -5.4932    -5.4539     1.1263 C.ar    
  29 C29           -4.2922    -5.3155     1.8004 C.ar    
  30 C30          -10.1696    -2.4012     1.0707 C.ar    
  31 C31           -9.4184    -1.8890     0.0214 C.ar    
  32 C32          -10.0497    -1.2210    -1.0192 C.ar    
  33 C33          -11.4223    -1.0680    -1.0079 C.ar    
  34 C34          -12.1678    -1.5792     0.0386 C.ar    
  35 C35          -11.5419    -2.2450     1.0765 C.ar    
  36 F36           -7.7108    -6.2839     1.0545 F       
  37 F37           -3.2713    -4.6390     1.2302 F       
  38 O38           -7.7205     0.1493     0.2298 O.2     
  39 C39           -4.9699     1.3236     0.3473 C.3     
  40 N40           -5.2096     1.9067    -0.9796 N.3     
  41 C41           -5.8172     3.2394    -0.8669 C.3     
  42 C42           -7.9670     3.8308    -3.9135 C.ar    
  43 C43           -7.5504     3.4088    -2.6649 C.ar    
  44 C44           -6.2719     3.7008    -2.2276 C.ar    
  45 C45           -5.4107     4.4164    -3.0383 C.ar    
  46 C46           -5.8278     4.8396    -4.2864 C.ar    
  47 C47           -7.1060     4.5468    -4.7240 C.ar    
  48 C48           -3.9685     1.9586    -1.7638 C.3     
  49 H49           -0.7216     2.4434     2.1465 H       
  50 H50           -2.8102     1.1530     2.0205 H       
  51 H51           -1.3802    -0.7962    -1.5224 H       
  52 H52            0.7024     0.5033    -1.3897 H       
  53 H53            1.2941     3.1976     0.7957 H       
  54 H54            3.5701     3.4040     0.3050 H       
  55 H55            6.0768     3.1593     0.6650 H       
  56 H56            6.8276     2.2604    -0.6753 H       
  57 H57            5.7317     3.6201    -1.0193 H       
  58 H58           -6.3681    -5.4489    -0.8202 H       
  59 H59           -4.6998    -4.8317    -0.7546 H       
  60 H60           -3.2023    -5.7587     3.5877 H       
  61 H61           -5.0609    -6.9946     4.6256 H       
  62 H62           -7.1970    -7.2424     3.4280 H       
  63 H63           -9.6818    -2.9252     1.8794 H       
  64 H64           -9.4680    -0.8212    -1.8366 H       
  65 H65          -11.9139    -0.5481    -1.8169 H       
  66 H66          -13.2409    -1.4583     0.0453 H       
  67 H67          -12.1268    -2.6432     1.8924 H       
  68 H68           -5.8454     1.4817     0.9771 H       
  69 H69           -4.1031     1.8020     0.8032 H       
  70 H70           -6.6736     3.1926    -0.1942 H       
  71 H71           -5.0828     3.9414    -0.4720 H       
  72 H72           -8.9644     3.5989    -4.2570 H       
  73 H73           -8.2232     2.8498    -2.0315 H       
  74 H74           -4.4122     4.6451    -2.6964 H       
  75 H75           -5.1551     5.3990    -4.9196 H       
  76 H76           -7.4318     4.8772    -5.6993 H       
  77 H77           -3.6213     0.9445    -1.9619 H       
  78 H78           -4.1566     2.4692    -2.7082 H       
  79 H79           -3.2068     2.5004    -1.2032 H       
@<TRIPOS>BOND
   1    1    2 ar
   2    1    7 1
   3    1    6 ar
   4    2    3 ar
   5    2   49 1
   6    3    4 ar
   7    3   50 1
   8    4    5 ar
   9    4   14 1
  10    5    6 ar
  11    5   51 1
  12    6   52 1
  13    7    8 am
  14    7   53 1
  15    8    9 2
  16    8   10 am
  17   10   11 1
  18   10   54 1
  19   11   12 1
  20   12   55 1
  21   12   56 1
  22   12   57 1
  23   13   14 2
  24   13   39 1
  25   13   17 1
  26   14   15 1
  27   15   16 1
  28   16   17 2
  29   16   18 1
  30   17   21 1
  31   18   19 am
  32   18   23 1
  33   19   20 am
  34   19   22 2
  35   20   21 am
  36   20   31 1
  37   21   38 2
  38   23   28 1
  39   23   58 1
  40   23   59 1
  41   24   25 ar
  42   24   29 ar
  43   24   60 1
  44   25   26 ar
  45   25   61 1
  46   26   27 ar
  47   26   62 1
  48   27   28 ar
  49   27   36 1
  50   28   29 ar
  51   29   37 1
  52   30   31 ar
  53   30   35 ar
  54   30   63 1
  55   31   32 ar
  56   32   33 ar
  57   32   64 1
  58   33   34 ar
  59   33   65 1
  60   34   35 ar
  61   34   66 1
  62   35   67 1
  63   39   40 1
  64   39   68 1
  65   39   69 1
  66   40   41 1
  67   40   48 1
  68   41   44 1
  69   41   70 1
  70   41   71 1
  71   42   43 ar
  72   42   47 ar
  73   42   72 1
  74   43   44 ar
  75   43   73 1
  76   44   45 ar
  77   45   46 ar
  78   45   74 1
  79   46   47 ar
  80   46   75 1
  81   47   76 1
  82   48   77 1
  83   48   78 1
  84   48   79 1

#	End of record

