#	Name: ASD01903004
#	Creating user name:	WinNT
#	Creation time:	15. 06. 2019 19:54

#	Modifying user name:	WinNT
#	Modification time:	15. 06. 2019 19:54

#	Program:	/corina/corina34_cracker 3.40 0067  02.08.2006

@<TRIPOS>MOLECULE
ASD01903004
  25   26    0    0    0
SMALL
NO_CHARGES


@<TRIPOS>ATOM
   1 C1             2.1043     1.3953     0.7649 C.ar    
   2 C2             2.1195     0.0145     0.7506 C.ar    
   3 C3             1.2141    -0.6809    -0.0294 C.ar    
   4 C4             0.2887     0.0048    -0.7986 C.ar    
   5 C5             0.2688     1.3881    -0.7876 C.ar    
   6 C6             1.1778     2.0873    -0.0051 C.ar    
   7 N7             1.1603     3.4854     0.0088 N.am    
   8 C8            -0.0115     4.1455    -0.0782 C.2     
   9 O9            -1.0444     3.5296    -0.2538 O.2     
  10 C10           -0.0405     5.6218     0.0402 C.ar    
  11 F11           -0.5945    -0.6772    -1.5601 F       
  12 N12            1.0907     6.2890     0.2319 N.ar    
  13 C13            1.1087     7.5995     0.3419 C.ar    
  14 C14           -0.0618     8.3365     0.2613 C.ar    
  15 C15           -1.2662     7.6796     0.0616 C.ar    
  16 C16           -1.2544     6.2989    -0.0564 C.ar    
  17 H17            2.8095     1.9369     1.3779 H       
  18 H18            2.8399    -0.5230     1.3494 H       
  19 H19            1.2287    -1.7608    -0.0392 H       
  20 H20           -0.4524     1.9233    -1.3875 H       
  21 H21            1.9915     3.9801     0.0810 H       
  22 H22            2.0487     8.1081     0.4974 H       
  23 H23           -0.0362     9.4123     0.3536 H       
  24 H24           -2.1921     8.2317    -0.0043 H       
  25 H25           -2.1741     5.7547    -0.2129 H       
@<TRIPOS>BOND
   1    1    2 ar
   2    1    6 ar
   3    1   17 1
   4    2    3 ar
   5    2   18 1
   6    3    4 ar
   7    3   19 1
   8    4    5 ar
   9    4   11 1
  10    5    6 ar
  11    5   20 1
  12    6    7 1
  13    7    8 am
  14    7   21 1
  15    8    9 2
  16    8   10 1
  17   10   12 ar
  18   10   16 ar
  19   12   13 ar
  20   13   14 ar
  21   13   22 1
  22   14   15 ar
  23   14   23 1
  24   15   16 ar
  25   15   24 1
  26   16   25 1

#	End of record

