#	Name: ASD01901108
#	Creating user name:	WinNT
#	Creation time:	15. 06. 2019 19:53

#	Modifying user name:	WinNT
#	Modification time:	15. 06. 2019 19:53

#	Program:	/corina/corina34_cracker 3.40 0067  02.08.2006

@<TRIPOS>MOLECULE
ASD01901108
  35   37    0    0    0
SMALL
NO_CHARGES


@<TRIPOS>ATOM
   1 C1            -0.0184     1.5028     0.0103 C.2     
   2 C2             0.0021    -0.0041     0.0020 C.3     
   3 O3            -1.3386    -0.4987     0.0122 O.3     
   4 C4            -1.4983    -1.8477     0.0064 C.ar    
   5 C5            -2.7819    -2.4024     0.0157 C.ar    
   6 C6            -2.9355    -3.7865     0.0098 C.ar    
   7 C7            -1.8225    -4.6030    -0.0052 C.ar    
   8 C8            -0.5538    -4.0514    -0.0143 C.ar    
   9 C9            -0.3901    -2.6788    -0.0143 C.ar    
  10 C10           -6.1278     0.0711     0.0627 C.ar    
  11 N11           -6.0634    -0.8994    -0.8272 N.ar    
  12 C12           -5.0188    -1.7079    -0.8770 C.ar    
  13 C13           -3.9745    -1.5205     0.0323 C.ar    
  14 C14           -4.0849    -0.4795     0.9579 C.ar    
  15 N15           -5.1650     0.2824     0.9382 N.ar    
  16 C16            2.4725     1.5850    -0.0130 C.ar    
  17 C17            1.2453     2.2555     0.0023 C.ar    
  18 C18            1.2403     3.6588     0.0094 C.ar    
  19 C19            2.4551     4.3180     0.0009 C.ar    
  20 C20            3.6277     3.5799    -0.0142 C.ar    
  21 N21            3.6028     2.2592    -0.0206 N.ar    
  22 Cl22           5.1552     4.4048    -0.0255 Cl      
  23 O23           -1.0766     2.0947     0.0185 O.2     
  24 H24            0.5123    -0.3556    -0.8948 H       
  25 H25            0.5293    -0.3651     0.8851 H       
  26 H26           -3.9244    -4.2206     0.0173 H       
  27 H27           -1.9426    -5.6763    -0.0094 H       
  28 H28            0.3126    -4.6961    -0.0257 H       
  29 H29            0.6028    -2.2540    -0.0264 H       
  30 H30           -6.9941     0.7158     0.0721 H       
  31 H31           -4.9733    -2.5010    -1.6087 H       
  32 H32           -3.3001    -0.3001     1.6779 H       
  33 H33            2.4929     0.5052    -0.0142 H       
  34 H34            0.3113     4.2094     0.0209 H       
  35 H35            2.4900     5.3975     0.0056 H       
@<TRIPOS>BOND
   1    1    2 1
   2    1   17 1
   3    1   23 2
   4    2    3 1
   5    2   24 1
   6    2   25 1
   7    3    4 1
   8    4    5 ar
   9    4    9 ar
  10    5    6 ar
  11    5   13 1
  12    6    7 ar
  13    6   26 1
  14    7    8 ar
  15    7   27 1
  16    8    9 ar
  17    8   28 1
  18    9   29 1
  19   10   11 ar
  20   10   15 ar
  21   10   30 1
  22   11   12 ar
  23   12   13 ar
  24   12   31 1
  25   13   14 ar
  26   14   15 ar
  27   14   32 1
  28   16   17 ar
  29   16   21 ar
  30   16   33 1
  31   17   18 ar
  32   18   19 ar
  33   18   34 1
  34   19   20 ar
  35   19   35 1
  36   20   21 ar
  37   20   22 1

#	End of record

