#	Name: ASD03091160
#	Creating user name:	WinNT
#	Creation time:	15. 06. 2019 20:30

#	Modifying user name:	WinNT
#	Modification time:	15. 06. 2019 20:30

#	Program:	/corina/corina34_cracker 3.40 0067  02.08.2006

@<TRIPOS>MOLECULE
ASD03091160
  44   47    0    0    0
SMALL
NO_CHARGES


@<TRIPOS>ATOM
   1 C1             2.3982    -3.5924     3.4715 C.3     
   2 N2             1.5905    -3.3273     2.2785 N.am    
   3 C3             0.7665    -2.2463     2.2492 C.2     
   4 N4             0.0205    -1.9445     1.2308 N.2     
   5 C5             0.0125    -2.7023     0.1049 C.ar    
   6 C6             0.8383    -3.8468     0.0445 C.ar    
   7 C7             1.6752    -4.1576     1.2130 C.2     
   8 C8             0.7164    -1.3527     3.4616 C.3     
   9 O9             2.4087    -5.1290     1.2250 O.2     
  10 C10           -0.7910    -2.3769    -0.9902 C.ar    
  11 C11           -0.7725    -3.1639    -2.1061 C.ar    
  12 C12            0.0409    -4.2951    -2.1712 C.ar    
  13 C13            0.8473    -4.6407    -1.1001 C.ar    
  14 N14            0.0416    -5.0848    -3.3245 N.3     
  15 C15            0.1847    -6.5082    -2.9881 C.3     
  16 C16           -0.6767    -7.3603    -3.9081 C.3     
  17 C17           -0.1242    -7.4743    -5.3146 C.3     
  18 N18            1.1852    -6.8175    -5.4364 N.3     
  19 C19            1.0069    -5.3662    -5.5953 C.3     
  20 C20            1.0997    -4.6630    -4.2501 C.3     
  21 C21            2.1241    -7.2398    -4.4193 C.3     
  22 C22            1.6555    -6.8815    -3.0186 C.3     
  23 H23            1.8370    -4.2281     4.1564 H       
  24 H24            3.3204    -4.0960     3.1815 H       
  25 H25            2.6383    -2.6503     3.9645 H       
  26 H26            1.4660    -0.5673     3.3653 H       
  27 H27           -0.2732    -0.9028     3.5407 H       
  28 H28            0.9203    -1.9418     4.3558 H       
  29 H29           -1.4263    -1.5043    -0.9544 H       
  30 H30           -1.3964    -2.9072    -2.9494 H       
  31 H31            1.4767    -5.5168    -1.1514 H       
  32 H32           -0.1681    -6.6503    -1.9665 H       
  33 H33           -0.7589    -8.3605    -3.4828 H       
  34 H34           -1.6735    -6.9220    -3.9587 H       
  35 H35           -0.0188    -8.5284    -5.5711 H       
  36 H36           -0.8222    -7.0082    -6.0100 H       
  37 H37            1.7820    -4.9795    -6.2569 H       
  38 H38            0.0293    -5.1707    -6.0360 H       
  39 H39            1.0225    -3.5873    -4.4080 H       
  40 H40            2.0688    -4.8836    -3.8026 H       
  41 H41            2.2525    -8.3203    -4.4835 H       
  42 H42            3.0851    -6.7598    -4.6041 H       
  43 H43            2.2425    -6.0388    -2.6534 H       
  44 H44            1.8179    -7.7357    -2.3613 H       
@<TRIPOS>BOND
   1    1    2 1
   2    1   23 1
   3    1   24 1
   4    1   25 1
   5    2    3 1
   6    2    7 am
   7    3    4 2
   8    3    8 1
   9    4    5 1
  10    5    6 ar
  11    5   10 ar
  12    6    7 1
  13    6   13 ar
  14    7    9 2
  15    8   26 1
  16    8   27 1
  17    8   28 1
  18   10   11 ar
  19   10   29 1
  20   11   12 ar
  21   11   30 1
  22   12   13 ar
  23   12   14 1
  24   13   31 1
  25   14   15 1
  26   14   20 1
  27   15   16 1
  28   15   22 1
  29   15   32 1
  30   16   17 1
  31   16   33 1
  32   16   34 1
  33   17   18 1
  34   17   35 1
  35   17   36 1
  36   18   19 1
  37   18   21 1
  38   19   20 1
  39   19   37 1
  40   19   38 1
  41   20   39 1
  42   20   40 1
  43   21   22 1
  44   21   41 1
  45   21   42 1
  46   22   43 1
  47   22   44 1

#	End of record

