#	Name: ASD03090797
#	Creating user name:	WinNT
#	Creation time:	15. 06. 2019 20:29

#	Modifying user name:	WinNT
#	Modification time:	15. 06. 2019 20:29

#	Program:	/corina/corina34_cracker 3.40 0067  02.08.2006

@<TRIPOS>MOLECULE
ASD03090797
  52   54    0    0    0
SMALL
NO_CHARGES


@<TRIPOS>ATOM
   1 C1            -1.0298    -0.0524     2.3646 C.ar    
   2 N2            -1.5722    -1.2128     2.6800 N.ar    
   3 C3            -2.8320    -1.4948     2.4041 C.ar    
   4 C4            -3.6410    -0.5743     1.7665 C.ar    
   5 C5            -3.1060     0.6690     1.4141 C.ar    
   6 C6            -1.7677     0.9261     1.7309 C.ar    
   7 C7            -3.9343     1.6867     0.7292 C.2     
   8 N8            -3.8558     2.9913     0.8976 N.2     
   9 C9            -4.7521     3.6002     0.1202 C.2     
  10 N10           -4.9506     4.9800     0.0393 N.pl3   
  11 C11           -4.2575     5.8371     0.8981 C.ar    
  12 C12           -3.9101     7.1127     0.4753 C.ar    
  13 C13           -2.8841     7.5318     2.6061 C.ar    
  14 C14           -3.2354     6.2631     3.0274 C.ar    
  15 C15           -3.9201     5.4156     2.1787 C.ar    
  16 C16           -3.2230     7.9601     1.3304 C.ar    
  17 O17           -2.8810     9.2095     0.9194 O.3     
  18 N18           -5.4177     2.6931    -0.5576 N.2     
  19 N19           -4.9007     1.4421    -0.1836 N.pl3   
  20 Cl20          -3.4804    -3.0428     2.8477 Cl      
  21 C21            0.4142     0.2104     2.7067 C.3     
  22 C22           -3.2615     9.5833    -0.4063 C.3     
  23 C23           -2.8652     5.8015     4.4134 C.3     
  24 F24           -2.1772     6.8231     5.0769 F       
  25 F25           -4.0270     5.4833     5.1248 F       
  26 F26           -2.0477     4.6697     4.3251 F       
  27 C27           -5.3267     0.1318    -0.6814 C.3     
  28 C28           -4.4561    -0.2683    -1.8743 C.3     
  29 C29           -4.8108    -1.6914    -2.3101 C.3     
  30 O30           -4.6892     0.6338    -2.9579 O.3     
  31 C31           -3.8572    -2.1374    -3.4203 C.3     
  32 H32           -4.6707    -0.8112     1.5432 H       
  33 H33           -1.3166     1.8737     1.4761 H       
  34 H34           -5.5697     5.3434    -0.6130 H       
  35 H35           -4.1744     7.4442    -0.5180 H       
  36 H36           -2.3488     8.1923     3.2722 H       
  37 H37           -4.1937     4.4249     2.5105 H       
  38 H38            1.0474    -0.1071     1.8783 H       
  39 H39            0.5571     1.2761     2.8855 H       
  40 H40            0.6824    -0.3477     3.6038 H       
  41 H41           -2.8002     8.9030    -1.1222 H       
  42 H42           -4.3461     9.5303    -0.5016 H       
  43 H43           -2.9286    10.6017    -0.6064 H       
  44 H44           -5.2209    -0.6097     0.1105 H       
  45 H45           -6.3697     0.1833    -0.9939 H       
  46 H46           -3.4054    -0.2274    -1.5872 H       
  47 H47           -4.7180    -2.3658    -1.4588 H       
  48 H48           -5.8356    -1.7130    -2.6808 H       
  49 H49           -5.5867     0.5950    -3.3157 H       
  50 H50           -4.1099    -3.1512    -3.7308 H       
  51 H51           -3.9499    -1.4630    -4.2716 H       
  52 H52           -2.8324    -2.1157    -3.0496 H       
@<TRIPOS>BOND
   1    1    2 ar
   2    1   21 1
   3    1    6 ar
   4    2    3 ar
   5    3    4 ar
   6    3   20 1
   7    4    5 ar
   8    4   32 1
   9    5    6 ar
  10    5    7 1
  11    6   33 1
  12    7    8 2
  13    7   19 1
  14    8    9 1
  15    9   10 1
  16    9   18 2
  17   10   11 1
  18   10   34 1
  19   11   12 ar
  20   11   15 ar
  21   12   16 ar
  22   12   35 1
  23   13   14 ar
  24   13   16 ar
  25   13   36 1
  26   14   15 ar
  27   14   23 1
  28   15   37 1
  29   16   17 1
  30   17   22 1
  31   18   19 1
  32   19   27 1
  33   21   38 1
  34   21   39 1
  35   21   40 1
  36   22   41 1
  37   22   42 1
  38   22   43 1
  39   23   24 1
  40   23   25 1
  41   23   26 1
  42   27   28 1
  43   27   44 1
  44   27   45 1
  45   28   29 1
  46   28   30 1
  47   28   46 1
  48   29   31 1
  49   29   47 1
  50   29   48 1
  51   30   49 1
  52   31   50 1
  53   31   51 1
  54   31   52 1

#	End of record

