#	Name: ASD04910263
#	Creating user name:	WinNT
#	Creation time:	15. 06. 2019 20:55

#	Modifying user name:	WinNT
#	Modification time:	15. 06. 2019 20:55

#	Program:	/corina/corina34_cracker 3.40 0067  02.08.2006

@<TRIPOS>MOLECULE
ASD04910263
  44   46    0    0    0
SMALL
NO_CHARGES


@<TRIPOS>ATOM
   1 C1             0.0095     1.4012     0.0053 C.ar    
   2 C2             0.0725     0.0208    -0.0292 C.ar    
   3 C3             1.3123    -0.5990    -0.0367 C.ar    
   4 C4             2.4485     0.1970    -0.0091 C.ar    
   5 C5             2.3067     1.5721     0.0247 C.ar    
   6 N6             1.1102     2.1266     0.0308 N.ar    
   7 C7            -1.3333     2.0854     0.0074 C.3     
   8 C8            -1.4256     3.0238     1.2124 C.3     
   9 C9            -2.8313     3.6234     1.2853 C.3     
  10 C10           -2.9237     4.5617     2.4902 C.3     
  11 O11           -1.4853     2.8399    -1.1966 O.3     
  12 C12           -2.7399     2.9343    -1.7114 C.ar    
  13 C13           -3.7874     2.2460    -1.1163 C.ar    
  14 C14           -5.0618     2.3420    -1.6386 C.ar    
  15 C15           -5.2952     3.1274    -2.7593 C.ar    
  16 C16           -4.2468     3.8160    -3.3544 C.ar    
  17 C17           -2.9736     3.7236    -2.8283 C.ar    
  18 N18           -6.5900     3.2249    -3.2906 N.pl3   
  19 N19           -7.7349     2.5881    -2.7944 N.2     
  20 C20           -8.7489     2.9203    -3.5525 C.2     
  21 C21           -8.2838     3.7783    -4.5547 C.2     
  22 C22           -6.9548     3.9547    -4.3686 C.2     
  23 C23           -9.1166     4.4015    -5.6452 C.3     
  24 F24          -10.4470     3.9911    -5.5081 F       
  25 F25           -9.0460     5.7952    -5.5471 F       
  26 F26           -8.6299     3.9965    -6.8928 F       
  27 Br27           4.1686    -0.5885    -0.0170 Br      
  28 H28           -0.8330    -0.5675    -0.0496 H       
  29 H29            1.3920    -1.6757    -0.0630 H       
  30 H30            3.1858     2.1990     0.0467 H       
  31 H31           -2.1227     1.3363     0.0690 H       
  32 H32           -1.2215     2.4641     2.1252 H       
  33 H33           -0.6940     3.8247     1.1060 H       
  34 H34           -3.0354     4.1830     0.3725 H       
  35 H35           -3.5629     2.8224     1.3916 H       
  36 H36           -2.7196     4.0021     3.4030 H       
  37 H37           -2.1921     5.3627     2.3839 H       
  38 H38           -3.9251     4.9889     2.5422 H       
  39 H39           -3.6056     1.6347    -0.2447 H       
  40 H40           -5.8770     1.8058    -1.1755 H       
  41 H41           -4.4279     4.4271    -4.2263 H       
  42 H42           -2.1588     4.2627    -3.2885 H       
  43 H43           -9.7690     2.5888    -3.4262 H       
  44 H44           -6.3024     4.5662    -4.9742 H       
@<TRIPOS>BOND
   1    1    2 ar
   2    1    6 ar
   3    1    7 1
   4    2    3 ar
   5    2   28 1
   6    3    4 ar
   7    3   29 1
   8    4    5 ar
   9    4   27 1
  10    5    6 ar
  11    5   30 1
  12    7    8 1
  13    7   11 1
  14    7   31 1
  15    8    9 1
  16    8   32 1
  17    8   33 1
  18    9   10 1
  19    9   34 1
  20    9   35 1
  21   10   36 1
  22   10   37 1
  23   10   38 1
  24   11   12 1
  25   12   13 ar
  26   12   17 ar
  27   13   14 ar
  28   13   39 1
  29   14   15 ar
  30   14   40 1
  31   15   16 ar
  32   15   18 1
  33   16   17 ar
  34   16   41 1
  35   17   42 1
  36   18   19 1
  37   18   22 1
  38   19   20 2
  39   20   21 1
  40   20   43 1
  41   21   22 2
  42   21   23 1
  43   22   44 1
  44   23   24 1
  45   23   25 1
  46   23   26 1

#	End of record

