#	Name: ASD01940102
#	Creating user name:	WinNT
#	Creation time:	15. 06. 2019 20:11

#	Modifying user name:	WinNT
#	Modification time:	15. 06. 2019 20:11

#	Program:	/corina/corina34_cracker 3.40 0067  02.08.2006

@<TRIPOS>MOLECULE
ASD01940102
  36   37    0    0    0
SMALL
NO_CHARGES


@<TRIPOS>ATOM
   1 F1             1.9017     1.6015     2.2851 F       
   2 C2             1.0628     2.1524     1.3807 C.ar    
   3 C3             1.3875     2.1346     0.0307 C.ar    
   4 C4             0.5187     2.7043    -0.8987 C.ar    
   5 C5            -0.6654     3.2861    -0.4713 C.ar    
   6 C6            -0.9833     3.3013     0.8744 C.ar    
   7 C7            -0.1251     2.7306     1.7988 C.ar    
   8 N8             2.5856     1.5458    -0.3962 N.pl3   
   9 N9             0.8414     2.6897    -2.2623 N.am    
  10 C10            2.6326     0.1733    -0.6700 C.ar    
  11 C11            1.4768    -0.5914    -0.5859 C.ar    
  12 C12            1.5228    -1.9450    -0.8563 C.ar    
  13 C13            2.7255    -2.5420    -1.2120 C.ar    
  14 C14            3.8828    -1.7774    -1.2958 C.ar    
  15 C15            3.8356    -0.4226    -1.0315 C.ar    
  16 Cl16           5.2810     0.5332    -1.1361 Cl      
  17 F17           -0.4434     2.7428     3.1117 F       
  18 S18            0.4245     3.9704    -3.2257 S.o2    
  19 C19            1.2747     5.3906    -2.4837 C.3     
  20 O20            0.9900     3.6560    -4.4909 O.2     
  21 O21           -0.9819     4.0895    -3.0611 O.2     
  22 S22            2.7838    -4.2691    -1.5562 S.3     
  23 C23            4.5306    -4.5461    -1.9592 C.3     
  24 H24           -1.3397     3.7280    -1.1900 H       
  25 H25           -1.9057     3.7556     1.2047 H       
  26 H26            3.3822     2.0891    -0.5021 H       
  27 H27            1.3091     1.9293    -2.6419 H       
  28 H28            0.5417    -0.1277    -0.3087 H       
  29 H29            0.6235    -2.5394    -0.7908 H       
  30 H30            4.8180    -2.2417    -1.5717 H       
  31 H31            2.3501     5.2124    -2.4866 H       
  32 H32            1.0537     6.2885    -3.0608 H       
  33 H33            0.9313     5.5243    -1.4579 H       
  34 H34            4.8057    -3.9377    -2.8207 H       
  35 H35            5.1489    -4.2680    -1.1057 H       
  36 H36            4.6869    -5.5992    -2.1933 H       
@<TRIPOS>BOND
   1    1    2 1
   2    2    3 ar
   3    2    7 ar
   4    3    4 ar
   5    3    8 1
   6    4    5 ar
   7    4    9 1
   8    5    6 ar
   9    5   24 1
  10    6    7 ar
  11    6   25 1
  12    7   17 1
  13    8   10 1
  14    8   26 1
  15    9   18 am
  16    9   27 1
  17   10   11 ar
  18   10   15 ar
  19   11   12 ar
  20   11   28 1
  21   12   13 ar
  22   12   29 1
  23   13   14 ar
  24   13   22 1
  25   14   15 ar
  26   14   30 1
  27   15   16 1
  28   18   19 1
  29   18   20 2
  30   18   21 2
  31   19   31 1
  32   19   32 1
  33   19   33 1
  34   22   23 1
  35   23   34 1
  36   23   35 1
  37   23   36 1

#	End of record

