#	Name: ASD01816395
#	Creating user name:	WinNT
#	Creation time:	15. 06. 2019 19:35

#	Modifying user name:	WinNT
#	Modification time:	15. 06. 2019 19:35

#	Program:	/corina/corina34_cracker 3.40 0067  02.08.2006

@<TRIPOS>MOLECULE
ASD01816395
  49   54    0    0    0
SMALL
NO_CHARGES


@<TRIPOS>ATOM
   1 C1            -0.0167     1.3813     0.0096 C.ar    
   2 C2             0.0021    -0.0041     0.0020 C.ar    
   3 C3             1.1983    -0.6909    -0.0126 C.ar    
   4 C4             2.4015     0.0059    -0.0203 C.ar    
   5 C5             2.3790     1.4106    -0.0130 C.ar    
   6 C6             1.1663     2.0917     0.0022 C.ar    
   7 N7             3.6053    -0.6771    -0.0345 N.pl3   
   8 C8             4.7970    -0.0585    -0.0425 C.2     
   9 C9             4.9000     1.3103    -0.0370 C.2     
  10 C10            3.6670     2.1302    -0.0214 C.2     
  11 C11            5.9971     2.2730    -0.0435 C.2     
  12 N12            5.4245     3.4961    -0.0331 N.am    
  13 N13            4.0322     3.3799    -0.0199 N.2     
  14 O14            7.1911     2.0231    -0.0559 O.2     
  15 C15            3.5779    -2.1419    -0.0406 C.3     
  16 C16            3.5552    -2.6379    -1.4634 C.ar    
  17 C17            4.7429    -2.8874    -2.1262 C.ar    
  18 C18            4.7254    -3.3417    -3.4304 C.ar    
  19 C19            3.5137    -3.5483    -4.0758 C.ar    
  20 C20            2.3228    -3.2973    -3.4076 C.ar    
  21 C21            2.3467    -2.8481    -2.1017 C.ar    
  22 N22            3.4926    -4.0088    -5.3997 N.pl3   
  23 C23            2.3876    -4.2503    -6.1408 C.2     
  24 C24            2.7941    -4.6801    -7.3579 C.2     
  25 C25            4.1931    -4.7024    -7.3618 C.2     
  26 N26            4.6126    -4.2947    -6.1911 N.2     
  27 C27            6.1209     4.6990    -0.0341 C.2     
  28 N28            7.4266     4.8446    -0.0456 N.2     
  29 N29            7.7409     6.0898    -0.0436 N.2     
  30 N30            6.6781     6.8194    -0.0309 N.2     
  31 N31            5.5814     5.9398    -0.0293 N.pl3   
  32 C32            4.1593     6.2913    -0.0171 C.3     
  33 H33           -0.9602     1.9068     0.0169 H       
  34 H34           -0.9289    -0.5515     0.0079 H       
  35 H35            1.2003    -1.7709    -0.0177 H       
  36 H36            1.1506     3.1715     0.0074 H       
  37 H37            5.6983    -0.6535    -0.0531 H       
  38 H38            4.4656    -2.5240     0.4633 H       
  39 H39            2.6861    -2.4908     0.4801 H       
  40 H40            5.6852    -2.7266    -1.6236 H       
  41 H41            5.6534    -3.5357    -3.9477 H       
  42 H42            1.3787    -3.4567    -3.9073 H       
  43 H43            1.4207    -2.6527    -1.5814 H       
  44 H44            1.3645    -4.1235    -5.8190 H       
  45 H45            2.1519    -4.9570    -8.1809 H       
  46 H46            4.8191    -5.0005    -8.1899 H       
  47 H47            3.7996     6.3859    -1.0417 H       
  48 H48            3.5965     5.5108     0.4949 H       
  49 H49            4.0237     7.2387     0.5045 H       
@<TRIPOS>BOND
   1    1    2 ar
   2    1    6 ar
   3    1   33 1
   4    2    3 ar
   5    2   34 1
   6    3    4 ar
   7    3   35 1
   8    4    5 ar
   9    4    7 1
  10    5    6 ar
  11    5   10 1
  12    6   36 1
  13    7    8 1
  14    7   15 1
  15    8    9 2
  16    8   37 1
  17    9   10 1
  18    9   11 1
  19   10   13 2
  20   11   12 am
  21   11   14 2
  22   12   13 1
  23   12   27 1
  24   15   16 1
  25   15   38 1
  26   15   39 1
  27   16   17 ar
  28   16   21 ar
  29   17   18 ar
  30   17   40 1
  31   18   19 ar
  32   18   41 1
  33   19   20 ar
  34   19   22 1
  35   20   21 ar
  36   20   42 1
  37   21   43 1
  38   22   23 1
  39   22   26 1
  40   23   24 2
  41   23   44 1
  42   24   25 1
  43   24   45 1
  44   25   26 2
  45   25   46 1
  46   27   28 2
  47   27   31 1
  48   28   29 1
  49   29   30 2
  50   30   31 1
  51   31   32 1
  52   32   47 1
  53   32   48 1
  54   32   49 1

#	End of record

