#	Name: ASD03330245
#	Creating user name:	WinNT
#	Creation time:	15. 06. 2019 20:36

#	Modifying user name:	WinNT
#	Modification time:	15. 06. 2019 20:36

#	Program:	/corina/corina34_cracker 3.40 0067  02.08.2006

@<TRIPOS>MOLECULE
ASD03330245
  62   64    0    0    0
SMALL
NO_CHARGES


@<TRIPOS>ATOM
   1 C1            -0.0179     1.4665     0.0101 C.3     
   2 N2             0.0021    -0.0041     0.0020 N.am    
   3 C3             0.5757    -0.6835    -1.1754 C.3     
   4 C4             1.8363     0.0608    -1.5407 C.2     
   5 N5             2.1944     1.2621    -1.0071 N.pl3   
   6 C6             1.4215     1.9935    -0.0008 C.3     
   7 C7             2.8055    -0.2966    -2.4207 C.2     
   8 N8             3.7378     0.6830    -2.4237 N.2     
   9 C9             3.3771     1.6222    -1.5796 C.2     
  10 C10            4.1292     2.8646    -1.2979 C.ar    
  11 C11            5.1502     3.2748    -2.1559 C.ar    
  12 C12            2.8367    -1.5297    -3.2269 C.2     
  13 O13            1.9340    -2.3395    -3.1348 O.2     
  14 C14            3.8967    -2.9860    -4.8679 C.3     
  15 N15            3.8656    -1.7601    -4.0664 N.am    
  16 C16            5.8482     4.4341    -1.8882 C.ar    
  17 C17            5.5373     5.1903    -0.7706 C.ar    
  18 C18            4.5251     4.7880     0.0843 C.ar    
  19 C19            3.8165     3.6335    -0.1764 C.ar    
  20 C20           -0.4887    -0.7102     1.0397 C.2     
  21 O21           -1.0073    -0.0699     2.1046 O.3     
  22 O22           -0.4633    -1.9248     1.0143 O.2     
  23 C23           -1.5175    -0.8944     3.1854 C.3     
  24 C24           -0.3881    -1.7653     3.7393 C.3     
  25 C25           -2.0620     0.0034     4.2983 C.3     
  26 C26           -2.6401    -1.7899     2.6575 C.3     
  27 C27            6.5160    -4.3559    -7.3321 C.3     
  28 C28            5.1939    -4.2810    -6.5657 C.3     
  29 C29            5.1614    -3.0007    -5.7287 C.3     
  30 Cl30           6.4204     6.6478    -0.4398 Cl      
  31 C31            4.0291    -4.2714    -7.5578 C.3     
  32 H32           -0.5443     1.8280    -0.8732 H       
  33 H33           -0.5273     1.8184     0.9071 H       
  34 H34            0.8127    -1.7185    -0.9291 H       
  35 H35           -0.1302    -0.6497    -2.0053 H       
  36 H36            1.4184     3.0558    -0.2451 H       
  37 H37            1.8707     1.8462     0.9813 H       
  38 H38            5.3937     2.6857    -3.0277 H       
  39 H39            3.8972    -3.8525    -4.2066 H       
  40 H40            3.0182    -3.0212    -5.5122 H       
  41 H41            4.5856    -1.1143    -4.1399 H       
  42 H42            6.6389     4.7525    -2.5515 H       
  43 H43            4.2869     5.3816     0.9546 H       
  44 H44            3.0272     3.3207     0.4911 H       
  45 H45            0.4116    -1.1273     4.1154 H       
  46 H46           -0.7712    -2.3842     4.5507 H       
  47 H47           -0.0003    -2.4049     2.9465 H       
  48 H48           -2.8666     0.6239     3.9037 H       
  49 H49           -2.4450    -0.6155     5.1097 H       
  50 H50           -1.2622     0.6414     4.6744 H       
  51 H51           -2.2522    -2.4295     1.8646 H       
  52 H52           -3.0231    -2.4088     3.4688 H       
  53 H53           -3.4447    -1.1694     2.2628 H       
  54 H54            7.3457    -4.3628    -6.6254 H       
  55 H55            6.5391    -5.2680    -7.9285 H       
  56 H56            6.6049    -3.4903    -7.9886 H       
  57 H57            5.1049    -5.1466    -5.9093 H       
  58 H58            5.1609    -2.1342    -6.3900 H       
  59 H59            6.0399    -2.9655    -5.0844 H       
  60 H60            4.0522    -5.1835    -8.1541 H       
  61 H61            3.0872    -4.2180    -7.0118 H       
  62 H62            4.1181    -3.4058    -8.2142 H       
@<TRIPOS>BOND
   1    1    2 1
   2    1    6 1
   3    1   32 1
   4    1   33 1
   5    2    3 1
   6    2   20 am
   7    3    4 1
   8    3   34 1
   9    3   35 1
  10    4    5 1
  11    4    7 2
  12    5    6 1
  13    5    9 1
  14    6   36 1
  15    6   37 1
  16    7    8 1
  17    7   12 1
  18    8    9 2
  19    9   10 1
  20   10   11 ar
  21   10   19 ar
  22   11   16 ar
  23   11   38 1
  24   12   13 2
  25   12   15 am
  26   14   15 1
  27   14   29 1
  28   14   39 1
  29   14   40 1
  30   15   41 1
  31   16   17 ar
  32   16   42 1
  33   17   18 ar
  34   17   30 1
  35   18   19 ar
  36   18   43 1
  37   19   44 1
  38   20   21 1
  39   20   22 2
  40   21   23 1
  41   23   24 1
  42   23   25 1
  43   23   26 1
  44   24   45 1
  45   24   46 1
  46   24   47 1
  47   25   48 1
  48   25   49 1
  49   25   50 1
  50   26   51 1
  51   26   52 1
  52   26   53 1
  53   27   28 1
  54   27   54 1
  55   27   55 1
  56   27   56 1
  57   28   29 1
  58   28   31 1
  59   28   57 1
  60   29   58 1
  61   29   59 1
  62   31   60 1
  63   31   61 1
  64   31   62 1

#	End of record

