#	Name: ASD01900482
#	Creating user name:	WinNT
#	Creation time:	15. 06. 2019 19:52

#	Modifying user name:	WinNT
#	Modification time:	15. 06. 2019 19:52

#	Program:	/corina/corina34_cracker 3.40 0067  02.08.2006

@<TRIPOS>MOLECULE
ASD01900482
  38   41    0    0    0
SMALL
NO_CHARGES


@<TRIPOS>ATOM
   1 C1             0.3102     1.6351     0.1522 C.ar    
   2 C2             0.5114     0.2680     0.0003 C.ar    
   3 C3             1.7766    -0.2646     0.1530 C.ar    
   4 C4             2.8475     0.5661     0.4583 C.ar    
   5 C5             2.6459     1.9317     0.6098 C.ar    
   6 C6             1.3808     2.4645     0.4572 C.ar    
   7 N7            -0.9718     2.1765    -0.0083 N.pl3   
   8 N8             4.1296     0.0266     0.6135 N.pl3   
   9 N9             4.4363    -2.9339    -1.3421 N.pl3   
  10 N10            3.7258    -1.8078    -0.9074 N.2     
  11 C11            4.4764    -1.1560    -0.0504 C.2     
  12 C12            5.6887    -1.8523     0.0835 C.2     
  13 C13            5.6345    -2.9382    -0.7208 C.2     
  14 C14           -0.1208     5.3445    -1.4278 C.ar    
  15 N15           -0.0542     4.1266    -0.9441 N.ar    
  16 C16           -1.1249     3.4670    -0.5073 C.ar    
  17 C17           -2.3833     4.0332    -0.5381 C.ar    
  18 C18           -2.5209     5.3357    -1.0449 C.ar    
  19 C19           -3.7640     5.9837    -1.1108 C.ar    
  20 C20           -3.8352     7.2478    -1.6120 C.ar    
  21 C21           -2.6923     7.9081    -2.0605 C.ar    
  22 C22           -1.4700     7.3105    -2.0121 C.ar    
  23 C23           -1.3559     6.0074    -1.5015 C.ar    
  24 Cl24          -0.8273    -0.7696    -0.3806 Cl      
  25 H25            1.9334    -1.3267     0.0355 H       
  26 H26            3.4784     2.5772     0.8475 H       
  27 H27            1.2244     3.5266     0.5751 H       
  28 H28           -1.7528     1.6521     0.2282 H       
  29 H29            4.7778     0.4721     1.1812 H       
  30 H30            4.1207    -3.5972    -1.9757 H       
  31 H31            6.5173    -1.5705     0.7163 H       
  32 H32            6.4119    -3.6777    -0.8439 H       
  33 H33            0.7774     5.8398    -1.7658 H       
  34 H34           -3.2433     3.4863    -0.1807 H       
  35 H35           -4.6574     5.4834    -0.7671 H       
  36 H36           -4.7919     7.7464    -1.6631 H       
  37 H37           -2.7779     8.9105    -2.4532 H       
  38 H38           -0.5940     7.8350    -2.3642 H       
@<TRIPOS>BOND
   1    1    2 ar
   2    1    6 ar
   3    1    7 1
   4    2    3 ar
   5    2   24 1
   6    3    4 ar
   7    3   25 1
   8    4    5 ar
   9    4    8 1
  10    5    6 ar
  11    5   26 1
  12    6   27 1
  13    7   16 1
  14    7   28 1
  15    8   11 1
  16    8   29 1
  17    9   10 1
  18    9   13 1
  19    9   30 1
  20   10   11 2
  21   11   12 1
  22   12   13 2
  23   12   31 1
  24   13   32 1
  25   14   15 ar
  26   14   23 ar
  27   14   33 1
  28   15   16 ar
  29   16   17 ar
  30   17   18 ar
  31   17   34 1
  32   18   19 ar
  33   18   23 ar
  34   19   20 ar
  35   19   35 1
  36   20   21 ar
  37   20   36 1
  38   21   22 ar
  39   21   37 1
  40   22   23 ar
  41   22   38 1

#	End of record

