#	Name: ASD01913400
#	Creating user name:	WinNT
#	Creation time:	15. 06. 2019 20:01

#	Modifying user name:	WinNT
#	Modification time:	15. 06. 2019 20:01

#	Program:	/corina/corina34_cracker 3.40 0067  02.08.2006

@<TRIPOS>MOLECULE
ASD01913400
  38   40    0    0    0
SMALL
NO_CHARGES


@<TRIPOS>ATOM
   1 C1            -2.2194    -0.7498    -2.1872 C.ar    
   2 C2            -1.7323    -0.0560    -1.0820 C.ar    
   3 C3            -1.8027     1.3351    -1.0935 C.ar    
   4 N4            -2.3257     1.9422    -2.1458 N.ar    
   5 C5            -2.7759     1.2492    -3.1724 C.ar    
   6 N6            -2.7274    -0.0676    -3.2000 N.ar    
   7 C7            -1.2371    -2.1332     0.0576 C.ar    
   8 C8            -0.0616    -2.8722     0.0006 C.ar    
   9 C9            -0.1052    -4.2551     0.0528 C.ar    
  10 C10           -1.3183    -4.9084     0.1625 C.ar    
  11 C11           -2.5038    -4.1733     0.2208 C.ar    
  12 C12           -2.4590    -2.7804     0.1677 C.ar    
  13 C13           -3.8026    -4.8693     0.3376 C.2     
  14 N14           -3.8437    -6.2155     0.3879 N.am    
  15 C15           -5.0642    -6.8694     0.4976 C.2     
  16 O16           -4.8337    -4.2274     0.3883 O.2     
  17 N17           -1.1876    -0.7376     0.0099 N.pl3   
  18 F18            1.0411    -4.9678    -0.0040 F       
  19 C19           -0.5650     0.0112     1.1043 C.3     
  20 S20           -6.5863    -6.0951     0.5779 S.3     
  21 C21           -7.3882    -7.6598     0.6897 C.2     
  22 C22           -6.4504    -8.6086     0.6569 C.2     
  23 N23           -5.2153    -8.1560     0.5485 N.2     
  24 C24           -6.7757   -10.0782     0.7316 C.3     
  25 H25           -2.1788    -1.8286    -2.2185 H       
  26 H26           -1.4359     1.9094    -0.2556 H       
  27 H27           -3.1974     1.7758    -4.0159 H       
  28 H28            0.8887    -2.3664    -0.0851 H       
  29 H29           -1.3491    -5.9873     0.2026 H       
  30 H30           -3.3731    -2.2071     0.2128 H       
  31 H31           -3.0209    -6.7276     0.3475 H       
  32 H32           -1.3167     0.2455     1.8581 H       
  33 H33            0.2246    -0.5912     1.5536 H       
  34 H34           -0.1395     0.9364     0.7157 H       
  35 H35           -8.4527    -7.8226     0.7710 H       
  36 H36           -6.9265   -10.4686    -0.2748 H       
  37 H37           -5.9512   -10.6091     1.2075 H       
  38 H38           -7.6847   -10.2199     1.3163 H       
@<TRIPOS>BOND
   1    1    2 ar
   2    1    6 ar
   3    1   25 1
   4    2    3 ar
   5    2   17 1
   6    3    4 ar
   7    3   26 1
   8    4    5 ar
   9    5    6 ar
  10    5   27 1
  11    7    8 ar
  12    7   12 ar
  13    7   17 1
  14    8    9 ar
  15    8   28 1
  16    9   10 ar
  17    9   18 1
  18   10   11 ar
  19   10   29 1
  20   11   12 ar
  21   11   13 1
  22   12   30 1
  23   13   14 am
  24   13   16 2
  25   14   15 1
  26   14   31 1
  27   15   20 1
  28   15   23 2
  29   17   19 1
  30   19   32 1
  31   19   33 1
  32   19   34 1
  33   20   21 1
  34   21   22 2
  35   21   35 1
  36   22   23 1
  37   22   24 1
  38   24   36 1
  39   24   37 1
  40   24   38 1

#	End of record

