#	Name: ASD01912678
#	Creating user name:	WinNT
#	Creation time:	15. 06. 2019 20:00

#	Modifying user name:	WinNT
#	Modification time:	15. 06. 2019 20:00

#	Program:	/corina/corina34_cracker 3.40 0067  02.08.2006

@<TRIPOS>MOLECULE
ASD01912678
  43   46    0    0    0
SMALL
NO_CHARGES


@<TRIPOS>ATOM
   1 C1            -0.0165     1.3669     0.0096 C.2     
   2 N2             0.0021    -0.0041     0.0020 N.pl3   
   3 C3            -1.2021    -0.6917     0.0098 C.2     
   4 C4            -2.3630    -0.0491     0.0243 C.2     
   5 N5            -2.4358     1.3305     0.0325 N.am    
   6 C6            -1.3019     2.0666     0.0309 C.2     
   7 C7             1.3016     1.7837    -0.0008 C.2     
   8 C8             2.0550     0.6111    -0.0143 C.2     
   9 N9             1.2243    -0.4045    -0.0118 N.2     
  10 O10           -1.3490     3.2837     0.0380 O.2     
  11 C11           -3.6846     1.9666     0.0474 C.ar    
  12 C12            3.5595     0.5250    -0.0298 C.3     
  13 O13            4.1121     1.8428    -0.0288 O.3     
  14 C14            5.4673     1.9436    -0.0419 C.ar    
  15 C15            6.0712     3.1926    -0.0417 C.ar    
  16 C16            7.4489     3.2924    -0.0551 C.ar    
  17 C17            8.2260     2.1488    -0.0688 C.ar    
  18 C18            7.6265     0.9028    -0.0694 C.ar    
  19 C19            6.2492     0.7977    -0.0498 C.ar    
  20 C20           -4.3177     2.2899    -1.1509 C.ar    
  21 C21           -5.5521     2.9187    -1.1310 C.ar    
  22 C22           -6.1536     3.2243     0.0777 C.ar    
  23 C23           -5.5238     2.9032     1.2687 C.ar    
  24 C24           -4.2956     2.2705     1.2555 C.ar    
  25 F25           -7.3573     3.8375     0.0956 F       
  26 O26           -3.7252     1.9895    -2.3371 O.3     
  27 C27           -4.4323     2.3505    -3.5252 C.3     
  28 H28           -1.1949    -1.7717     0.0036 H       
  29 H29           -3.2786    -0.6218     0.0296 H       
  30 H30            1.6686     2.7994     0.0012 H       
  31 H31            3.9018    -0.0132     0.8540 H       
  32 H32            3.8839    -0.0043    -0.9258 H       
  33 H33            5.4647     4.0862    -0.0314 H       
  34 H34            7.9195     4.2644    -0.0553 H       
  35 H35            9.3029     2.2289    -0.0792 H       
  36 H36            8.2356     0.0110    -0.0808 H       
  37 H37            5.7814    -0.1758    -0.0503 H       
  38 H38           -6.0448     3.1708    -2.0585 H       
  39 H39           -5.9961     3.1435     2.2098 H       
  40 H40           -3.8068     2.0209     2.1856 H       
  41 H41           -4.5892     3.4290    -3.5411 H       
  42 H42           -3.8503     2.0551    -4.3983 H       
  43 H43           -5.3966     1.8427    -3.5426 H       
@<TRIPOS>BOND
   1    1    2 1
   2    1    7 2
   3    1    6 1
   4    2    3 1
   5    2    9 1
   6    3    4 2
   7    3   28 1
   8    4    5 1
   9    4   29 1
  10    5    6 am
  11    5   11 1
  12    6   10 2
  13    7    8 1
  14    7   30 1
  15    8    9 2
  16    8   12 1
  17   11   20 ar
  18   11   24 ar
  19   12   13 1
  20   12   31 1
  21   12   32 1
  22   13   14 1
  23   14   15 ar
  24   14   19 ar
  25   15   16 ar
  26   15   33 1
  27   16   17 ar
  28   16   34 1
  29   17   18 ar
  30   17   35 1
  31   18   19 ar
  32   18   36 1
  33   19   37 1
  34   20   21 ar
  35   20   26 1
  36   21   22 ar
  37   21   38 1
  38   22   23 ar
  39   22   25 1
  40   23   24 ar
  41   23   39 1
  42   24   40 1
  43   26   27 1
  44   27   41 1
  45   27   42 1
  46   27   43 1

#	End of record

