#	Name: ASD00170749
#	Creating user name:	WinNT
#	Creation time:	15. 06. 2019 18:32

#	Modifying user name:	WinNT
#	Modification time:	15. 06. 2019 18:32

#	Program:	/corina/corina34_cracker 3.40 0067  02.08.2006

@<TRIPOS>MOLECULE
ASD00170749
  42   44    0    0    0
SMALL
NO_CHARGES


@<TRIPOS>ATOM
   1 C1            -0.0150     1.2130     0.0019 C.2     
   2 O2             0.6028     1.0969    -1.0411 O.2     
   3 C3             0.5323     0.6439     1.2531 C.ar    
   4 C4             1.6991    -0.1211     1.2235 C.ar    
   5 C5             1.5565    -0.4214     3.5950 C.ar    
   6 C6            -0.1130     0.8746     2.4689 C.ar    
   7 C7             2.2042    -0.6490     2.3937 C.ar    
   8 C8             0.4024     0.3410     3.6321 C.ar    
   9 C9             2.1136    -1.0015     4.8694 C.3     
  10 C10           -1.3710     3.2628     0.1343 C.2     
  11 C11           -1.2564     1.8990     0.0182 C.2     
  12 C12           -2.5461     1.2343    -0.0861 C.2     
  13 C13           -3.5740     2.0883    -0.0474 C.2     
  14 S14           -3.0065     3.7399     0.1183 S.3     
  15 C15           -2.7039    -0.2333    -0.2218 C.ar    
  16 C16           -3.5810    -0.9231     0.6141 C.ar    
  17 C17           -3.7237    -2.2894     0.4831 C.ar    
  18 C18           -2.9985    -2.9746    -0.4752 C.ar    
  19 C19           -2.1264    -2.2956    -1.3071 C.ar    
  20 C20           -1.9800    -0.9284    -1.1896 C.ar    
  21 C21           -1.3393    -3.0495    -2.3479 C.3     
  22 F22           -1.6586    -4.4098    -2.2792 F       
  23 F23           -1.6577    -2.5593    -3.6189 F       
  24 F24            0.0291    -2.8792    -2.1117 F       
  25 C25           -4.6709    -3.0366     1.3862 C.3     
  26 F26           -5.9387    -3.0828     0.7964 F       
  27 F27           -4.1995    -4.3393     1.5810 F       
  28 F28           -4.7539    -2.3814     2.6195 F       
  29 N29           -0.3046     4.1298     0.2539 N.pl3   
  30 H30            2.2054    -0.2998     0.2864 H       
  31 H31           -1.0137     1.4698     2.4992 H       
  32 H32            3.1069    -1.2415     2.3721 H       
  33 H33           -0.0985     0.5150     4.5729 H       
  34 H34            2.8088    -0.2920     5.3181 H       
  35 H35            1.2982    -1.2006     5.5649 H       
  36 H36            2.6367    -1.9316     4.6470 H       
  37 H37           -4.6130     1.8004    -0.1099 H       
  38 H38           -4.1474    -0.3893     1.3629 H       
  39 H39           -3.1134    -4.0439    -0.5740 H       
  40 H40           -1.3027    -0.3986    -1.8431 H       
  41 H41            0.5970     3.7814     0.3351 H       
  42 H42           -0.4564     5.0878     0.2567 H       
@<TRIPOS>BOND
   1    1    2 2
   2    1    3 1
   3    1   11 1
   4    3    4 ar
   5    3    6 ar
   6    4    7 ar
   7    4   30 1
   8    5    7 ar
   9    5    8 ar
  10    5    9 1
  11    6    8 ar
  12    6   31 1
  13    7   32 1
  14    8   33 1
  15    9   34 1
  16    9   35 1
  17    9   36 1
  18   10   11 2
  19   10   14 1
  20   10   29 1
  21   11   12 1
  22   12   13 2
  23   12   15 1
  24   13   14 1
  25   13   37 1
  26   15   16 ar
  27   15   20 ar
  28   16   17 ar
  29   16   38 1
  30   17   18 ar
  31   17   25 1
  32   18   19 ar
  33   18   39 1
  34   19   20 ar
  35   19   21 1
  36   20   40 1
  37   21   22 1
  38   21   23 1
  39   21   24 1
  40   25   26 1
  41   25   27 1
  42   25   28 1
  43   29   41 1
  44   29   42 1

#	End of record

