#	Name: ASD00431401
#	Creating user name:	WinNT
#	Creation time:	15. 06. 2019 18:35

#	Modifying user name:	WinNT
#	Modification time:	15. 06. 2019 18:35

#	Program:	/corina/corina34_cracker 3.40 0067  02.08.2006

@<TRIPOS>MOLECULE
ASD00431401
  37   38    0    0    0
SMALL
NO_CHARGES


@<TRIPOS>ATOM
   1 C1            -0.0866     1.2089     0.5763 C.2     
   2 N2            -0.0001    -0.0088     0.0053 N.am    
   3 O3             0.8946     1.7114     1.0876 O.2     
   4 O4            -1.2591     1.8712     0.5754 O.3     
   5 C5             1.2438    -0.6448    -0.1035 C.ar    
   6 C6             1.3302    -2.0258     0.0117 C.ar    
   7 C7             2.5560    -2.6520    -0.0962 C.ar    
   8 C8             3.7014    -1.9015    -0.3197 C.ar    
   9 C9             3.6157    -0.5215    -0.4349 C.ar    
  10 C10            2.3896     0.1053    -0.3324 C.ar    
  11 O11            4.9083    -2.5185    -0.4253 O.3     
  12 S12            6.5076    -4.2979    -1.7178 S.3     
  13 C13            5.1105    -3.3421    -1.4797 C.2     
  14 N14            4.2700    -3.5188    -2.4555 N.2     
  15 C15            4.6191    -4.3542    -3.4029 C.2     
  16 C16            5.8360    -4.9253    -3.2211 C.2     
  17 C17            6.4637    -5.8693    -4.0959 C.1     
  18 N18            6.9616    -6.6183    -4.7899 N.1     
  19 C19           -1.2786     3.1778     1.2083 C.3     
  20 C20           -0.2841     4.1015     0.5021 C.3     
  21 C21           -2.6852     3.7716     1.1091 C.3     
  22 C22           -0.8871     3.0372     2.6807 C.3     
  23 H23           -0.7988    -0.4450    -0.3302 H       
  24 H24            0.4387    -2.6100     0.1859 H       
  25 H25            2.6234    -3.7261    -0.0063 H       
  26 H26            4.5076     0.0623    -0.6084 H       
  27 H27            2.3224     1.1791    -0.4262 H       
  28 H28            3.9916    -4.5698    -4.2551 H       
  29 H29           -0.5631     4.2017    -0.5468 H       
  30 H30           -0.2988     5.0824     0.9773 H       
  31 H31            0.7180     3.6785     0.5728 H       
  32 H32           -3.3937     3.1135     1.6122 H       
  33 H33           -2.6999     4.7524     1.5843 H       
  34 H34           -2.9641     3.8718     0.0602 H       
  35 H35            0.1150     2.6142     2.7514 H       
  36 H36           -0.9017     4.0181     3.1558 H       
  37 H37           -1.5955     2.3791     3.1838 H       
@<TRIPOS>BOND
   1    1    2 am
   2    1    3 2
   3    1    4 1
   4    2    5 1
   5    2   23 1
   6    4   19 1
   7    5    6 ar
   8    5   10 ar
   9    6    7 ar
  10    6   24 1
  11    7    8 ar
  12    7   25 1
  13    8    9 ar
  14    8   11 1
  15    9   10 ar
  16    9   26 1
  17   10   27 1
  18   11   13 1
  19   12   13 1
  20   12   16 1
  21   13   14 2
  22   14   15 1
  23   15   16 2
  24   15   28 1
  25   16   17 1
  26   17   18 3
  27   19   20 1
  28   19   22 1
  29   19   21 1
  30   20   29 1
  31   20   30 1
  32   20   31 1
  33   21   32 1
  34   21   33 1
  35   21   34 1
  36   22   35 1
  37   22   36 1
  38   22   37 1

#	End of record

