#	Name: ASD01890101
#	Creating user name:	WinNT
#	Creation time:	15. 06. 2019 19:50

#	Modifying user name:	WinNT
#	Modification time:	15. 06. 2019 19:50

#	Program:	/corina/corina34_cracker 3.40 0067  02.08.2006

@<TRIPOS>MOLECULE
ASD01890101
  43   46    0    0    0
SMALL
NO_CHARGES


@<TRIPOS>ATOM
   1 C1            -0.0168     1.3892     0.0097 C.ar    
   2 C2             0.0021    -0.0041     0.0020 C.ar    
   3 C3             1.1686    -0.7029    -0.0124 C.ar    
   4 C4             2.3917    -0.0079    -0.0203 C.ar    
   5 C5             2.3723     1.4567    -0.0127 C.ar    
   6 C6             1.1301     2.1191     0.0026 C.ar    
   7 C7             3.6207    -0.6787    -0.0346 C.ar    
   8 C8             4.7915     0.0469    -0.0414 C.ar    
   9 C9             4.7789     1.4599    -0.0343 C.ar    
  10 C10            3.5806     2.1597    -0.0200 C.ar    
  11 N11            6.1284    -0.3188    -0.0551 N.pl3   
  12 C12            6.8620     0.8275    -0.0560 C.2     
  13 N13            6.0792     1.8648    -0.0439 N.2     
  14 C14            8.3678     0.8858    -0.0692 C.3     
  15 C15            8.8349     1.7381    -1.2508 C.3     
  16 C16            8.3756     3.1837    -1.0500 C.3     
  17 C17           10.3388     1.6962    -1.3370 C.ar    
  18 C18           10.9523     1.2081    -2.4756 C.ar    
  19 C19           12.3316     1.1694    -2.5552 C.ar    
  20 C20           13.0983     1.6193    -1.4951 C.ar    
  21 C21           12.4838     2.1077    -0.3558 C.ar    
  22 C22           11.1044     2.1511    -0.2796 C.ar    
  23 Cl23          14.8308     1.5705    -1.5941 Cl      
  24 C24            8.7279     3.9966    -2.2691 C.2     
  25 O25            9.2888     3.4734    -3.2027 O.2     
  26 O26            8.4187     5.3019    -2.3177 O.3     
  27 H27           -0.9671     1.9024     0.0169 H       
  28 H28           -0.9339    -0.5429     0.0080 H       
  29 H29            1.1561    -1.7828    -0.0174 H       
  30 H30            1.0886     3.1983     0.0081 H       
  31 H31            3.6505    -1.7583    -0.0399 H       
  32 H32            3.5815     3.2397    -0.0147 H       
  33 H33            6.4767    -1.2241    -0.0627 H       
  34 H34            8.7224     1.3292     0.8613 H       
  35 H35            8.7696    -0.1227    -0.1673 H       
  36 H36            8.4070     1.3458    -2.1734 H       
  37 H37            7.2963     3.2044    -0.8990 H       
  38 H38            8.8729     3.6048    -0.1763 H       
  39 H39           10.3537     0.8566    -3.3029 H       
  40 H40           12.8108     0.7877    -3.4446 H       
  41 H41           13.0818     2.4590     0.4721 H       
  42 H42           10.6245     2.5323     0.6097 H       
  43 H43            8.6647     5.7817    -3.1204 H       
@<TRIPOS>BOND
   1    1    2 ar
   2    1    6 ar
   3    1   27 1
   4    2    3 ar
   5    2   28 1
   6    3    4 ar
   7    3   29 1
   8    4    5 ar
   9    4    7 ar
  10    5    6 ar
  11    5   10 ar
  12    6   30 1
  13    7    8 ar
  14    7   31 1
  15    8    9 ar
  16    8   11 1
  17    9   10 ar
  18    9   13 1
  19   10   32 1
  20   11   12 1
  21   11   33 1
  22   12   13 2
  23   12   14 1
  24   14   15 1
  25   14   34 1
  26   14   35 1
  27   15   16 1
  28   15   17 1
  29   15   36 1
  30   16   24 1
  31   16   37 1
  32   16   38 1
  33   17   18 ar
  34   17   22 ar
  35   18   19 ar
  36   18   39 1
  37   19   20 ar
  38   19   40 1
  39   20   21 ar
  40   20   23 1
  41   21   22 ar
  42   21   41 1
  43   22   42 1
  44   24   25 2
  45   24   26 1
  46   26   43 1

#	End of record

