#	Name: ASD03430921
#	Creating user name:	WinNT
#	Creation time:	15. 06. 2019 20:41

#	Modifying user name:	WinNT
#	Modification time:	15. 06. 2019 20:41

#	Program:	/corina/corina34_cracker 3.40 0067  02.08.2006

@<TRIPOS>MOLECULE
ASD03430921
  48   53    0    0    0
SMALL
NO_CHARGES


@<TRIPOS>ATOM
   1 O1            -0.0175     1.4360     0.0099 O.3     
   2 C2             0.0021    -0.0041     0.0020 C.3     
   3 C3             1.3456    -0.3163    -0.6705 C.3     
   4 C4             2.1580     0.9229    -0.4075 C.ar    
   5 C5             1.2618     1.9074     0.0003 C.ar    
   6 C6             1.7450     3.1698     0.3234 C.ar    
   7 C7             3.1022     3.4544     0.2317 C.ar    
   8 C8             3.9757     2.4546    -0.1791 C.ar    
   9 C9             3.5056     1.1999    -0.4986 C.ar    
  10 N10            2.1634    -2.4018    -1.1247 N.am    
  11 C11            1.9849    -1.5481    -0.0969 C.2     
  12 C12            1.1904    -0.5945    -2.1362 C.ar    
  13 C13            0.6783     0.1263    -3.1929 C.ar    
  14 C14            0.6774    -0.4170    -4.4671 C.ar    
  15 C15            1.1917    -1.6833    -4.6743 C.ar    
  16 C16            1.7043    -2.4097    -3.6191 C.ar    
  17 C17            1.7085    -1.8720    -2.3345 C.ar    
  18 O18            2.2828    -1.7374     1.0635 O.2     
  19 C19            5.3711     3.0475    -0.1638 C.3     
  20 C20            5.1634     4.3313     0.6741 C.3     
  21 O21            3.7678     4.6165     0.4797 O.3     
  22 C22            2.7646    -3.7308    -0.9886 C.3     
  23 C23            1.6692    -4.7589    -0.6989 C.3     
  24 C24            2.2920    -6.1463    -0.4277 C.3     
  25 C25            1.3023    -7.1364    -1.0816 C.3     
  26 C26            0.1987    -6.2300    -1.6706 C.3     
  27 O27            0.8374    -4.9492    -1.8641 O.3     
  28 Cl28           0.0332     1.7159    -2.9271 Cl      
  29 H29           -0.0222    -0.3969     1.0185 H       
  30 H30           -0.8261    -0.3990    -0.5864 H       
  31 H31            1.0587     3.9377     0.6486 H       
  32 H32            4.1934     0.4323    -0.8212 H       
  33 H33            0.2758     0.1468    -5.2961 H       
  34 H34            1.1920    -2.1067    -5.6678 H       
  35 H35            2.1036    -3.3985    -3.7900 H       
  36 H36            6.0753     2.3736     0.3240 H       
  37 H37            5.7022     3.2905    -1.1734 H       
  38 H38            5.3762     4.1440     1.7266 H       
  39 H39            5.7805     5.1450     0.2931 H       
  40 H40            3.2752    -3.9951    -1.9147 H       
  41 H41            3.4818    -3.7229    -0.1678 H       
  42 H42            1.0665    -4.4406     0.1518 H       
  43 H43            3.2735    -6.2224    -0.8955 H       
  44 H44            2.3635    -6.3299     0.6444 H       
  45 H45            1.7946    -7.7020    -1.8728 H       
  46 H46            0.8846    -7.8094    -0.3329 H       
  47 H47           -0.1505    -6.6277    -2.6235 H       
  48 H48           -0.6311    -6.1382    -0.9698 H       
@<TRIPOS>BOND
   1    1    2 1
   2    1    5 1
   3    2    3 1
   4    2   29 1
   5    2   30 1
   6    3    4 1
   7    3   11 1
   8    3   12 1
   9    4    5 ar
  10    4    9 ar
  11    5    6 ar
  12    6    7 ar
  13    6   31 1
  14    7    8 ar
  15    7   21 1
  16    8    9 ar
  17    8   19 1
  18    9   32 1
  19   10   11 am
  20   10   17 1
  21   10   22 1
  22   11   18 2
  23   12   13 ar
  24   12   17 ar
  25   13   14 ar
  26   13   28 1
  27   14   15 ar
  28   14   33 1
  29   15   16 ar
  30   15   34 1
  31   16   17 ar
  32   16   35 1
  33   19   20 1
  34   19   36 1
  35   19   37 1
  36   20   21 1
  37   20   38 1
  38   20   39 1
  39   22   23 1
  40   22   40 1
  41   22   41 1
  42   23   24 1
  43   23   27 1
  44   23   42 1
  45   24   25 1
  46   24   43 1
  47   24   44 1
  48   25   26 1
  49   25   45 1
  50   25   46 1
  51   26   27 1
  52   26   47 1
  53   26   48 1

#	End of record

