#	Name: ASD01814524
#	Creating user name:	WinNT
#	Creation time:	15. 06. 2019 19:32

#	Modifying user name:	WinNT
#	Modification time:	15. 06. 2019 19:32

#	Program:	/corina/corina34_cracker 3.40 0067  02.08.2006

@<TRIPOS>MOLECULE
ASD01814524
  16   16    0    0    0
SMALL
NO_CHARGES


@<TRIPOS>ATOM
   1 C1            -0.0167     1.3837     0.0096 C.ar    
   2 C2             0.0021    -0.0041     0.0020 C.ar    
   3 C3            -1.1858    -0.7102     0.0100 C.ar    
   4 C4            -2.3928    -0.0368     0.0252 C.ar    
   5 C5            -2.4170     1.3463     0.0324 C.ar    
   6 C6            -1.2327     2.0593     0.0307 C.ar    
   7 F7            -1.2561     3.4101     0.0377 F       
   8 N8             1.1837     2.1010     0.0020 N.pl3   
   9 N9             2.3767     1.4358    -0.0129 N.3     
  10 H10            0.9443    -0.5317    -0.0105 H       
  11 H11           -1.1710    -1.7901     0.0041 H       
  12 H12           -3.3193    -0.5917     0.0311 H       
  13 H13           -3.3618     1.8695     0.0439 H       
  14 H14            1.1692     3.0708     0.0074 H       
  15 H15            2.4288     0.8044    -0.7982 H       
  16 H16            3.1512     2.0825    -0.0168 H       
@<TRIPOS>BOND
   1    1    2 ar
   2    1    8 1
   3    1    6 ar
   4    2    3 ar
   5    2   10 1
   6    3    4 ar
   7    3   11 1
   8    4    5 ar
   9    4   12 1
  10    5    6 ar
  11    5   13 1
  12    6    7 1
  13    8    9 1
  14    8   14 1
  15    9   15 1
  16    9   16 1

#	End of record

