#	Name: ASD08178020
#	Creating user name:	WinNT
#	Creation time:	15. 06. 2019 21:18

#	Modifying user name:	WinNT
#	Modification time:	15. 06. 2019 21:18

#	Program:	/corina/corina34_cracker 3.40 0067  02.08.2006

@<TRIPOS>MOLECULE
ASD08178020
  95   98    0    0    0
SMALL
NO_CHARGES


@<TRIPOS>ATOM
   1 C1            -0.0167     1.3781     0.0096 C.ar    
   2 C2             0.0021    -0.0041     0.0020 C.ar    
   3 C3             1.2084    -0.6789    -0.0132 C.ar    
   4 C4             2.3960     0.0285    -0.0212 C.ar    
   5 C5             2.3773     1.4107    -0.0145 C.ar    
   6 C6             1.1709     2.0855     0.0021 C.ar    
   7 O7             3.8247     4.2586    -1.1331 O.2     
   8 C8             3.7292     3.0551    -1.2492 C.2     
   9 C9             3.6720     2.1819    -0.0223 C.3     
  10 N10            3.8282     4.5995    -3.6114 N.2     
  11 C11            3.7271     3.3045    -3.6078 C.2     
  12 N12            3.6743     2.4987    -2.4755 N.am    
  13 N13            3.8630     5.1815    -4.7311 N.2     
  14 C14            3.7938     4.4248    -5.7800 C.2     
  15 S15            3.6686     2.7538    -5.2289 S.3     
  16 C16            3.7521     3.0567     1.2304 C.3     
  17 O17            3.8162     2.2103     2.4085 O.3     
  18 C18            3.8909     2.8268     3.5985 C.2     
  19 C19            3.9605     2.0136     4.8653 C.3     
  20 O20            3.9023     4.0337     3.6539 O.2     
  21 C21            3.8164     4.8886    -7.2137 C.3     
  22 C22            5.2620     4.9327    -7.7128 C.3     
  23 S23            5.2891     5.4909    -9.4386 S.3     
  24 C24            7.0572     5.4782    -9.8439 C.3     
  25 C25            7.2518     5.9326   -11.2918 C.3     
  26 C26            8.7207     5.9220   -11.6285 C.2     
  27 N27            9.3842     4.9250   -12.1217 N.2     
  28 N28           10.6138     5.1153   -12.3355 N.2     
  29 C29           11.1027     6.2832   -12.0453 C.2     
  30 S30            9.8435     7.2677   -11.4289 S.3     
  31 N31           12.4276     6.6716   -12.2121 N.am    
  32 C32           13.3266     5.8022   -12.7146 C.2     
  33 O33           12.9801     4.6811   -13.0215 O.2     
  34 C34           14.7623     6.2231   -12.8953 C.3     
  35 C35           15.3423     6.6159   -11.5610 C.ar    
  36 C36           15.5657     5.0585   -13.4777 C.3     
  37 O37           16.9197     5.4990   -13.7621 O.3     
  38 C38           17.7598     4.5900   -14.2815 C.2     
  39 O39           17.3765     3.4636   -14.4915 O.2     
  40 C40           19.1811     4.9744   -14.6027 C.3     
  41 C41           15.8255     7.8965   -11.3674 C.ar    
  42 C42           15.3860     5.6973   -10.5289 C.ar    
  43 C43           15.9181     6.0577    -9.3050 C.ar    
  44 C44           16.4068     7.3364    -9.1133 C.ar    
  45 C45           16.3576     8.2568   -10.1435 C.ar    
  46 C46            4.0382     2.9528     6.0706 C.3     
  47 C47            2.7099     1.1396     4.9797 C.3     
  48 C48            5.2040     1.1228     4.8319 C.3     
  49 C49           19.9191     3.7641   -15.1784 C.3     
  50 C50           19.1831     6.1087   -15.6294 C.3     
  51 C51           19.8842     5.4407   -13.3263 C.3     
  52 H52           -0.9592     1.9054     0.0170 H       
  53 H53           -0.9258    -0.5567     0.0083 H       
  54 H54            1.2231    -1.7588    -0.0184 H       
  55 H55            3.3386    -0.4987    -0.0324 H       
  56 H56            1.1563     3.1654     0.0069 H       
  57 H57            4.5100     1.4850    -0.0330 H       
  58 H58            3.5980     1.5362    -2.5684 H       
  59 H59            4.6450     3.6800     1.1818 H       
  60 H60            2.8682     3.6919     1.2871 H       
  61 H61            3.2407     4.1967    -7.8285 H       
  62 H62            3.3785     5.8845    -7.2803 H       
  63 H63            5.8377     5.6246    -7.0980 H       
  64 H64            5.6999     3.9367    -7.6462 H       
  65 H65            7.5880     6.1564    -9.1758 H       
  66 H66            7.4502     4.4686    -9.7239 H       
  67 H67            6.7210     5.2543   -11.9599 H       
  68 H68            6.8588     6.9421   -11.4117 H       
  69 H69           12.7048     7.5681   -11.9667 H       
  70 H70           14.8089     7.0730   -13.5761 H       
  71 H71           15.5934     4.2403   -12.7580 H       
  72 H72           15.0939     4.7163   -14.3988 H       
  73 H73           15.7876     8.6154   -12.1725 H       
  74 H74           15.0042     4.6982   -10.6787 H       
  75 H75           15.9516     5.3402    -8.4984 H       
  76 H76           16.8221     7.6181    -8.1570 H       
  77 H77           16.7393     9.2559    -9.9937 H       
  78 H78            3.1523     3.5875     6.0944 H       
  79 H79            4.0886     2.3647     6.9869 H       
  80 H80            4.9291     3.5755     5.9891 H       
  81 H81            2.6545     0.4704     4.1210 H       
  82 H82            2.7603     0.5514     5.8960 H       
  83 H83            1.8240     1.7742     5.0035 H       
  84 H84            6.0949     1.7455     4.7504 H       
  85 H85            5.2543     0.5346     5.7482 H       
  86 H86            5.1486     0.4537     3.9732 H       
  87 H87           19.4182     3.4319   -16.0878 H       
  88 H88           20.9471     4.0422   -15.4107 H       
  89 H89           19.9177     2.9560   -14.4469 H       
  90 H90           18.6573     6.9710   -15.2193 H       
  91 H91           20.2111     6.3868   -15.8618 H       
  92 H92           18.6822     5.7766   -16.5388 H       
  93 H93           19.8828     4.6325   -12.5948 H       
  94 H94           20.9122     5.7187   -13.5586 H       
  95 H95           19.3585     6.3029   -12.9161 H       
@<TRIPOS>BOND
   1    1    2 ar
   2    1    6 ar
   3    1   52 1
   4    2    3 ar
   5    2   53 1
   6    3    4 ar
   7    3   54 1
   8    4    5 ar
   9    4   55 1
  10    5    6 ar
  11    5    9 1
  12    6   56 1
  13    7    8 2
  14    8    9 1
  15    8   12 am
  16    9   16 1
  17    9   57 1
  18   10   11 2
  19   10   13 1
  20   11   12 1
  21   11   15 1
  22   12   58 1
  23   13   14 2
  24   14   15 1
  25   14   21 1
  26   16   17 1
  27   16   59 1
  28   16   60 1
  29   17   18 1
  30   18   19 1
  31   18   20 2
  32   19   46 1
  33   19   47 1
  34   19   48 1
  35   21   22 1
  36   21   61 1
  37   21   62 1
  38   22   23 1
  39   22   63 1
  40   22   64 1
  41   23   24 1
  42   24   25 1
  43   24   65 1
  44   24   66 1
  45   25   26 1
  46   25   67 1
  47   25   68 1
  48   26   27 2
  49   26   30 1
  50   27   28 1
  51   28   29 2
  52   29   30 1
  53   29   31 1
  54   31   32 am
  55   31   69 1
  56   32   33 2
  57   32   34 1
  58   34   35 1
  59   34   36 1
  60   34   70 1
  61   35   41 ar
  62   35   42 ar
  63   36   37 1
  64   36   71 1
  65   36   72 1
  66   37   38 1
  67   38   39 2
  68   38   40 1
  69   40   49 1
  70   40   50 1
  71   40   51 1
  72   41   45 ar
  73   41   73 1
  74   42   43 ar
  75   42   74 1
  76   43   44 ar
  77   43   75 1
  78   44   45 ar
  79   44   76 1
  80   45   77 1
  81   46   78 1
  82   46   79 1
  83   46   80 1
  84   47   81 1
  85   47   82 1
  86   47   83 1
  87   48   84 1
  88   48   85 1
  89   48   86 1
  90   49   87 1
  91   49   88 1
  92   49   89 1
  93   50   90 1
  94   50   91 1
  95   50   92 1
  96   51   93 1
  97   51   94 1
  98   51   95 1

#	End of record

