#	Name: ASD06710074
#	Creating user name:	WinNT
#	Creation time:	15. 06. 2019 21:08

#	Modifying user name:	WinNT
#	Modification time:	15. 06. 2019 21:08

#	Program:	/corina/corina34_cracker 3.40 0067  02.08.2006

@<TRIPOS>MOLECULE
ASD06710074
  32   33    0    0    0
SMALL
NO_CHARGES


@<TRIPOS>ATOM
   1 C1            -0.0155     1.2918     0.0091 C.2     
   2 C2             1.2381    -0.7756    -0.0289 C.3     
   3 C3             2.3486     1.3940     0.3502 C.2     
   4 C4             2.4213     0.0683     0.3489 C.2     
   5 C5             0.3621    -2.2339    -1.7512 C.3     
   6 C6             0.6791    -2.8758    -3.1038 C.3     
   7 C7             0.8175    -1.7795    -4.1637 C.3     
   8 C8             1.5599    -0.2180    -2.3625 C.3     
   9 C9             1.9127    -0.7998    -3.7333 C.3     
  10 N10            0.0021    -0.0041     0.0020 N.2     
  11 N11            1.1529     2.0188     0.0019 N.pl3   
  12 N12            1.4394    -1.3061    -1.3838 N.3     
  13 N13           -1.2219     1.9514     0.0184 N.pl3   
  14 N14            3.4590     2.1545     0.6974 N.pl3   
  15 O15            1.1401     3.3886    -0.3565 O.3     
  16 H16            1.1562    -1.6080     0.6701 H       
  17 H17            3.3484    -0.4120     0.6251 H       
  18 H18           -0.5792    -1.6885    -1.8198 H       
  19 H19            0.2770    -3.0108    -0.9915 H       
  20 H20            1.6132    -3.4329    -3.0322 H       
  21 H21           -0.1283    -3.5526    -3.3835 H       
  22 H22            1.0860    -2.2290    -5.1198 H       
  23 H23           -0.1286    -1.2475    -4.2632 H       
  24 H24            2.3449     0.4692    -2.0468 H       
  25 H25            0.6130     0.3179    -2.4282 H       
  26 H26            2.8663    -1.3241    -3.6717 H       
  27 H27            1.9867     0.0067    -4.4629 H       
  28 H28           -2.0505     1.4470     0.0195 H       
  29 H29           -1.2445     2.9211     0.0238 H       
  30 H30            4.2900     1.7168     0.9397 H       
  31 H31            3.4029     3.1229     0.6974 H       
  32 H32            0.2631     3.7282    -0.5815 H       
@<TRIPOS>BOND
   1    1   10 2
   2    1   11 1
   3    1   13 1
   4    2    4 1
   5    2   10 1
   6    2   12 1
   7    2   16 1
   8    3    4 2
   9    3   11 1
  10    3   14 1
  11    4   17 1
  12    5    6 1
  13    5   12 1
  14    5   18 1
  15    5   19 1
  16    6    7 1
  17    6   20 1
  18    6   21 1
  19    7    9 1
  20    7   22 1
  21    7   23 1
  22    8    9 1
  23    8   12 1
  24    8   24 1
  25    8   25 1
  26    9   26 1
  27    9   27 1
  28   11   15 1
  29   13   28 1
  30   13   29 1
  31   14   30 1
  32   14   31 1
  33   15   32 1

#	End of record

