#	Name: ASD09200007
#	Creating user name:	WinNT
#	Creation time:	15. 06. 2019 21:21

#	Modifying user name:	WinNT
#	Modification time:	15. 06. 2019 21:21

#	Program:	/corina/corina34_cracker 3.40 0067  02.08.2006

@<TRIPOS>MOLECULE
ASD09200007
  58   62    0    0    0
SMALL
NO_CHARGES


@<TRIPOS>ATOM
   1 C1             0.0000     1.3756    -0.0166 C.ar    
   2 C2             0.0230    -0.0172    -0.0263 C.ar    
   3 C3             1.2538    -0.6999    -0.0380 C.ar    
   4 C4             2.4416     0.0025    -0.0399 C.ar    
   5 C5             2.4302     1.3938    -0.0302 C.ar    
   6 C6             1.5286     3.5102    -0.0101 C.2     
   7 C7             1.1991     2.0835    -0.0185 C.ar    
   8 N8             3.4298     2.3378    -0.0294 N.pl3   
   9 C9             2.8807     3.6020    -0.0176 C.2     
  10 C10            3.6494     4.8651    -0.0132 C.ar    
  11 C11            3.2788     5.9125    -0.8563 C.ar    
  12 C12            4.0044     7.0938    -0.8466 C.ar    
  13 C13            5.0975     7.2312     0.0019 C.ar    
  14 C14            5.4647     6.1930     0.8368 C.ar    
  15 C15            4.7448     5.0152     0.8390 C.ar    
  16 C16           -1.2397    -0.7748    -0.0239 C.2     
  17 C17            4.8650     2.0437    -0.0388 C.3     
  18 N18            3.6376     8.1462    -1.6898 N.am    
  19 C19            3.1355     7.8859    -2.9131 C.2     
  20 C20            2.6330     9.0023    -3.7665 C.2     
  21 O21            3.0921     6.7434    -3.3209 O.2     
  22 N22            2.1310     8.7420    -4.9898 N.am    
  23 C23            1.5716     9.7727    -5.7491 C.ar    
  24 C24            2.1127    11.0518    -5.6885 C.ar    
  25 C25            0.4783     9.5165    -6.5686 C.ar    
  26 C26           -0.0752    10.5322    -7.3187 C.ar    
  27 C27            0.4623    11.8169    -7.2550 C.ar    
  28 C28            1.5623    12.0704    -6.4370 C.ar    
  29 C29           -0.1314    12.9114    -8.0617 C.2     
  30 C30           -1.1892    12.7270    -8.8730 C.2     
  31 S31           -1.6022    14.2466    -9.6557 S.3     
  32 C32           -0.2909    15.0719    -8.8247 C.2     
  33 C33            0.3566    14.2166    -8.0374 C.2     
  34 O34            2.6764    10.1449    -3.3587 O.2     
  35 O35            1.2724    -2.0569    -0.0470 O.3     
  36 O36           -1.2193    -1.9899    -0.0324 O.2     
  37 O37           -2.4180    -0.1208    -0.0123 O.3     
  38 I38            0.1698     5.1046     0.0085 I       
  39 H39           -0.9423     1.9033    -0.0122 H       
  40 H40            3.3819    -0.5287    -0.0485 H       
  41 H41            2.4297     5.8035    -1.5148 H       
  42 H42            5.6616     8.1522     0.0081 H       
  43 H43            6.3148     6.3054     1.4934 H       
  44 H44            5.0321     4.2080     1.4964 H       
  45 H45            5.2156     1.9778    -1.0687 H       
  46 H46            5.4022     2.8391     0.4778 H       
  47 H47            5.0448     1.0954     0.4677 H       
  48 H48            3.7443     9.0640    -1.3945 H       
  49 H49            2.1580     7.8391    -5.3431 H       
  50 H50            2.9647    11.2478    -5.0543 H       
  51 H51            0.0624     8.5210    -6.6179 H       
  52 H52           -0.9244    10.3327    -7.9555 H       
  53 H53            1.9830    13.0640    -6.3896 H       
  54 H54           -1.7049    11.7897    -9.0210 H       
  55 H55           -0.0495    16.1189    -8.9337 H       
  56 H56            1.1987    14.5108    -7.4286 H       
  57 H57            1.2727    -2.4444    -0.9329 H       
  58 H58           -3.2200    -0.6610    -0.0112 H       
@<TRIPOS>BOND
   1    1    2 ar
   2    1    7 ar
   3    1   39 1
   4    2    3 ar
   5    2   16 1
   6    3    4 ar
   7    3   35 1
   8    4    5 ar
   9    4   40 1
  10    5    8 1
  11    5    7 ar
  12    6    7 1
  13    6    9 2
  14    6   38 1
  15    8    9 1
  16    8   17 1
  17    9   10 1
  18   10   11 ar
  19   10   15 ar
  20   11   12 ar
  21   11   41 1
  22   12   13 ar
  23   12   18 1
  24   13   14 ar
  25   13   42 1
  26   14   15 ar
  27   14   43 1
  28   15   44 1
  29   16   36 2
  30   16   37 1
  31   17   45 1
  32   17   46 1
  33   17   47 1
  34   18   19 am
  35   18   48 1
  36   19   20 1
  37   19   21 2
  38   20   22 am
  39   20   34 2
  40   22   23 1
  41   22   49 1
  42   23   25 ar
  43   23   24 ar
  44   24   28 ar
  45   24   50 1
  46   25   26 ar
  47   25   51 1
  48   26   27 ar
  49   26   52 1
  50   27   28 ar
  51   27   29 1
  52   28   53 1
  53   29   30 2
  54   29   33 1
  55   30   31 1
  56   30   54 1
  57   31   32 1
  58   32   33 2
  59   32   55 1
  60   33   56 1
  61   35   57 1
  62   37   58 1

#	End of record

