#	Name: ASD05130004
#	Creating user name:	WinNT
#	Creation time:	15. 06. 2019 20:56

#	Modifying user name:	WinNT
#	Modification time:	15. 06. 2019 20:56

#	Program:	/corina/corina34_cracker 3.40 0067  02.08.2006

@<TRIPOS>MOLECULE
ASD05130004
  73   77    0    0    0
SMALL
NO_CHARGES


@<TRIPOS>ATOM
   1 N1             0.5510     1.9867    -1.2774 N.am    
   2 C2             1.9816     2.3410    -1.2452 C.3     
   3 C3             2.6884     1.2089    -2.0316 C.3     
   4 C4             1.8590    -0.0312    -1.6053 C.3     
   5 C5             0.4291     0.5357    -1.4803 C.3     
   6 C6            -0.4752     2.8493    -1.1380 C.2     
   7 O7            -0.2556     4.0330    -0.9688 O.2     
   8 N8            -1.7448     2.3996    -1.1863 N.am    
   9 N9             4.0903     1.0736    -1.6142 N.3     
  10 C10            4.7268    -0.0755    -2.2717 C.3     
  11 C11            4.8389     2.3104    -1.8748 C.3     
  12 N12           -6.4612     3.3000    -0.9738 N.am    
  13 C13           -7.4684     4.1589    -0.7217 C.2     
  14 C14           -7.1797     5.5295    -0.2928 C.2     
  15 C15           -5.8802     5.9323    -0.1498 C.2     
  16 C16           -4.8400     5.0114    -0.4208 C.ar    
  17 C17           -3.4957     5.3807    -0.2880 C.ar    
  18 N18           -2.5416     4.5122    -0.5426 N.ar    
  19 C19           -2.8011     3.2690    -0.9315 C.ar    
  20 C20           -4.1036     2.8205    -1.0891 C.ar    
  21 C21           -5.1518     3.6976    -0.8323 C.ar    
  22 O22           -8.6235     3.7942    -0.8513 O.2     
  23 C23           -6.7630     1.9301    -1.3963 C.3     
  24 C24           -6.8534     1.8753    -2.9226 C.3     
  25 C25           -8.2878     6.4734    -0.0161 C.ar    
  26 C26           -9.0345     6.3514     1.1568 C.ar    
  27 C27          -10.0671     7.2323     1.4128 C.ar    
  28 C28          -10.3644     8.2372     0.5087 C.ar    
  29 C29           -9.6245     8.3652    -0.6626 C.ar    
  30 C30           -8.5835     7.4889    -0.9238 C.ar    
  31 N31           -9.9288     9.3836    -1.5757 N.am    
  32 C32           -8.9968     9.8005    -2.4555 C.2     
  33 O33           -7.8628     9.3664    -2.3912 O.2     
  34 N34           -9.3217    10.6985    -3.4066 N.am    
  35 C35           -8.3832    11.0563    -4.3809 C.ar    
  36 C36           -8.7952    11.3178    -5.6811 C.ar    
  37 C37           -7.8664    11.6707    -6.6404 C.ar    
  38 C38           -6.5275    11.7638    -6.3074 C.ar    
  39 C39           -6.1141    11.5041    -5.0136 C.ar    
  40 C40           -7.0386    11.1563    -4.0484 C.ar    
  41 F41          -11.3758     9.0957     0.7640 F       
  42 Cl42          -8.6658     5.0921     2.2935 Cl      
  43 H43            2.1456     3.3017    -1.7334 H       
  44 H44            2.3420     2.3708    -0.2169 H       
  45 H45            2.6168     1.3762    -3.1063 H       
  46 H46            1.9013    -0.8054    -2.3714 H       
  47 H47            2.2064    -0.4164    -0.6466 H       
  48 H48           -0.0757     0.0831    -0.6268 H       
  49 H49           -0.1305     0.3348    -2.3938 H       
  50 H50           -1.9223     1.4699    -1.3986 H       
  51 H51            4.6956     0.0613    -3.3527 H       
  52 H52            5.7638    -0.1525    -1.9450 H       
  53 H53            4.1933    -0.9879    -2.0054 H       
  54 H54            4.4447     3.1121    -1.2503 H       
  55 H55            5.8922     2.1534    -1.6425 H       
  56 H56            4.7352     2.5834    -2.9250 H       
  57 H57           -5.6510     6.9396     0.1653 H       
  58 H58           -3.2416     6.3823     0.0260 H       
  59 H59           -4.3008     1.8071    -1.4063 H       
  60 H60           -5.9722     1.2621    -1.0549 H       
  61 H61           -7.7139     1.6179    -0.9645 H       
  62 H62           -7.0780     0.8561    -3.2369 H       
  63 H63           -7.6442     2.5434    -3.2639 H       
  64 H64           -5.9025     2.1875    -3.3544 H       
  65 H65          -10.6443     7.1364     2.3206 H       
  66 H66           -8.0055     7.5898    -1.8305 H       
  67 H67          -10.8102     9.7886    -1.5746 H       
  68 H68          -10.2062    11.0967    -3.4157 H       
  69 H69           -9.8407    11.2449    -5.9418 H       
  70 H70           -8.1861    11.8738    -7.6518 H       
  71 H71           -5.8031    12.0396    -7.0594 H       
  72 H72           -5.0676    11.5773    -4.7568 H       
  73 H73           -6.7158    10.9583    -3.0369 H       
@<TRIPOS>BOND
   1    1    2 1
   2    1    5 1
   3    1    6 am
   4    2    3 1
   5    2   43 1
   6    2   44 1
   7    3    4 1
   8    3    9 1
   9    3   45 1
  10    4    5 1
  11    4   46 1
  12    4   47 1
  13    5   48 1
  14    5   49 1
  15    6    7 2
  16    6    8 am
  17    8   19 1
  18    8   50 1
  19    9   10 1
  20    9   11 1
  21   10   51 1
  22   10   52 1
  23   10   53 1
  24   11   54 1
  25   11   55 1
  26   11   56 1
  27   12   13 am
  28   12   21 1
  29   12   23 1
  30   13   14 1
  31   13   22 2
  32   14   15 2
  33   14   25 1
  34   15   16 1
  35   15   57 1
  36   16   17 ar
  37   16   21 ar
  38   17   18 ar
  39   17   58 1
  40   18   19 ar
  41   19   20 ar
  42   20   21 ar
  43   20   59 1
  44   23   24 1
  45   23   60 1
  46   23   61 1
  47   24   62 1
  48   24   63 1
  49   24   64 1
  50   25   26 ar
  51   25   30 ar
  52   26   27 ar
  53   26   42 1
  54   27   28 ar
  55   27   65 1
  56   28   29 ar
  57   28   41 1
  58   29   30 ar
  59   29   31 1
  60   30   66 1
  61   31   32 am
  62   31   67 1
  63   32   33 2
  64   32   34 am
  65   34   35 1
  66   34   68 1
  67   35   36 ar
  68   35   40 ar
  69   36   37 ar
  70   36   69 1
  71   37   38 ar
  72   37   70 1
  73   38   39 ar
  74   38   71 1
  75   39   40 ar
  76   39   72 1
  77   40   73 1

#	End of record

