#	Name: ASD01881253
#	Creating user name:	WinNT
#	Creation time:	15. 06. 2019 19:42

#	Modifying user name:	WinNT
#	Modification time:	15. 06. 2019 19:42

#	Program:	/corina/corina34_cracker 3.40 0067  02.08.2006

@<TRIPOS>MOLECULE
ASD01881253
  49   52    0    0    0
SMALL
NO_CHARGES


@<TRIPOS>ATOM
   1 C1            -0.0162     1.3398     0.0094 C.2     
   2 N2             0.0021    -0.0041     0.0020 N.am    
   3 C3             1.3976    -0.4572    -0.0137 C.3     
   4 C4             2.2455     0.7903    -0.0151 C.ar    
   5 C5             3.6017     1.0053    -0.0273 C.ar    
   6 C6             4.0981     2.3048    -0.0255 C.ar    
   7 C7             3.2227     3.3847    -0.0109 C.ar    
   8 C8             1.8621     3.1749     0.0014 C.ar    
   9 C9             1.3579     1.8709    -0.0009 C.ar    
  10 O10           -1.0236     2.0205     0.0181 O.2     
  11 C11           -1.1772    -0.8733     0.0093 C.3     
  12 C12           -1.6020    -1.1687    -1.4305 C.3     
  13 C13           -2.8335    -2.0765    -1.4229 C.3     
  14 O14            5.4382     2.5186    -0.0375 O.3     
  15 C15            5.8783     3.8781    -0.0348 C.3     
  16 C16            8.1164     2.7485    -0.0626 C.ar    
  17 C17            7.3847     3.9185    -0.0494 C.ar    
  18 C18            8.0612     5.1413    -0.0502 C.ar    
  19 C19            9.4589     5.1226    -0.0644 C.ar    
  20 C20           10.1120     3.9075    -0.0771 C.ar    
  21 N21            9.4352     2.7749    -0.0758 N.ar    
  22 C22            7.3164     6.4243    -0.0368 C.ar    
  23 C23            7.6443     7.4137     0.8881 C.ar    
  24 C24            6.9480     8.6053     0.8961 C.ar    
  25 C25            5.9261     8.8183    -0.0114 C.ar    
  26 C26            5.5960     7.8395    -0.9314 C.ar    
  27 C27            6.2900     6.6467    -0.9527 C.ar    
  28 H28            1.6083    -1.0525     0.8747 H       
  29 H29            1.5913    -1.0429    -0.9124 H       
  30 H30            4.2820     0.1666    -0.0380 H       
  31 H31            3.6115     4.3922    -0.0088 H       
  32 H32            1.1852     4.0164     0.0131 H       
  33 H33           -0.9365    -1.8079     0.5161 H       
  34 H34           -1.9925    -0.3751     0.5338 H       
  35 H35           -1.8426    -0.2342    -1.9373 H       
  36 H36           -0.7866    -1.6669    -1.9550 H       
  37 H37           -2.5929    -3.0110    -0.9161 H       
  38 H38           -3.6489    -1.5783    -0.8984 H       
  39 H39           -3.1362    -2.2869    -2.4486 H       
  40 H40            5.4926     4.3866    -0.9185 H       
  41 H41            5.5101     4.3774     0.8614 H       
  42 H42            7.6025     1.7987    -0.0576 H       
  43 H43           10.0193     6.0459    -0.0659 H       
  44 H44           11.1916     3.8830    -0.0885 H       
  45 H45            8.4416     7.2482     1.5976 H       
  46 H46            7.2014     9.3728     1.6125 H       
  47 H47            5.3836     9.7521    -0.0013 H       
  48 H48            4.7967     8.0108    -1.6372 H       
  49 H49            6.0349     5.8852    -1.6748 H       
@<TRIPOS>BOND
   1    1    2 am
   2    1    9 1
   3    1   10 2
   4    2    3 1
   5    2   11 1
   6    3    4 1
   7    3   28 1
   8    3   29 1
   9    4    5 ar
  10    4    9 ar
  11    5    6 ar
  12    5   30 1
  13    6    7 ar
  14    6   14 1
  15    7    8 ar
  16    7   31 1
  17    8    9 ar
  18    8   32 1
  19   11   12 1
  20   11   33 1
  21   11   34 1
  22   12   13 1
  23   12   35 1
  24   12   36 1
  25   13   37 1
  26   13   38 1
  27   13   39 1
  28   14   15 1
  29   15   17 1
  30   15   40 1
  31   15   41 1
  32   16   17 ar
  33   16   21 ar
  34   16   42 1
  35   17   18 ar
  36   18   19 ar
  37   18   22 1
  38   19   20 ar
  39   19   43 1
  40   20   21 ar
  41   20   44 1
  42   22   23 ar
  43   22   27 ar
  44   23   24 ar
  45   23   45 1
  46   24   25 ar
  47   24   46 1
  48   25   26 ar
  49   25   47 1
  50   26   27 ar
  51   26   48 1
  52   27   49 1

#	End of record

