#	Name: ASD06170187
#	Creating user name:	WinNT
#	Creation time:	15. 06. 2019 21:05

#	Modifying user name:	WinNT
#	Modification time:	15. 06. 2019 21:05

#	Program:	/corina/corina34_cracker 3.40 0067  02.08.2006

@<TRIPOS>MOLECULE
ASD06170187
  69   74    0    0    0
SMALL
NO_CHARGES


@<TRIPOS>ATOM
   1 C1             0.0488     1.2981    -0.1033 C.2     
   2 C2             0.0233    -0.0877     0.2012 C.2     
   3 C3             1.2219    -0.7438     0.4620 C.2     
   4 C4             2.4206    -0.0092     0.4147 C.2     
   5 C5             2.3860     1.3378     0.1131 C.2     
   6 N6             1.2183     1.9626    -0.1378 N.am    
   7 C7            -1.2519    -0.8195     0.2410 C.2     
   8 O8            -1.2560    -2.0268     0.3906 O.2     
   9 N9            -2.4159    -0.1526     0.1116 N.am    
  10 C10            3.7127    -0.6768     0.6876 C.2     
  11 C11            4.0760    -1.2153     1.8677 C.2     
  12 C12            5.3340    -1.7845     1.8792 C.2     
  13 C13            5.9969    -1.7146     0.7222 C.2     
  14 S14            5.0088    -0.8967    -0.4809 S.3     
  15 C15            1.2226     3.3929    -0.4548 C.3     
  16 C16            1.0908     4.1897     0.8175 C.ar    
  17 C17            2.2222     4.5760     1.5115 C.ar    
  18 C18            2.1013     5.3069     2.6786 C.ar    
  19 C19            0.8490     5.6518     3.1515 C.ar    
  20 C20           -0.2824     5.2663     2.4570 C.ar    
  21 C21           -0.1613     4.5391     1.2876 C.ar    
  22 O22           -0.9918     1.8874    -0.3393 O.2     
  23 C23           -3.6164    -0.8566     0.0186 C.ar    
  24 C24           -3.5982    -2.2052    -0.3198 C.ar    
  25 C25           -4.7944    -2.8937    -0.4092 C.ar    
  26 C26           -5.9775    -2.2041    -0.1551 C.ar    
  27 C27           -5.9188    -0.8600     0.1767 C.ar    
  28 N28           -4.7597    -0.2351     0.2585 N.ar    
  29 O29           -7.1758    -2.8419    -0.2323 O.3     
  30 N30           -8.2072    -5.3614     2.8661 N.ar    
  31 C31           -7.1127    -4.6407     2.9378 C.ar    
  32 C32           -6.7339    -3.7804     1.9151 C.ar    
  33 C33           -7.5213    -3.6724     0.7823 C.ar    
  34 C34           -8.6968    -4.4537     0.7156 C.ar    
  35 C35           -9.5450    -4.3984    -0.4004 C.ar    
  36 C36          -10.6722    -5.1676    -0.4310 C.ar    
  37 C37          -10.9908    -6.0121     0.6420 C.ar    
  38 C38          -10.1831    -6.0847     1.7402 C.ar    
  39 C39           -9.0156    -5.3060     1.8008 C.ar    
  40 O40          -12.1187    -6.7680     0.5883 O.3     
  41 C41          -12.3904    -7.6087     1.7114 C.3     
  42 O42          -11.4945    -5.1141    -1.5127 O.3     
  43 C43          -11.1154    -4.2342    -2.5729 C.3     
  44 H44            1.2320    -1.7980     0.6968 H       
  45 H45            3.3081     1.8990     0.0780 H       
  46 H46           -2.4188     0.8170     0.0832 H       
  47 H47            3.4342    -1.2026     2.7363 H       
  48 H48            5.7511    -2.2514     2.7592 H       
  49 H49            6.9887    -2.1057     0.5499 H       
  50 H50            2.1579     3.6523    -0.9507 H       
  51 H51            0.3858     3.6213    -1.1149 H       
  52 H52            3.2006     4.3065     1.1420 H       
  53 H53            2.9852     5.6081     3.2211 H       
  54 H54            0.7545     6.2223     4.0636 H       
  55 H55           -1.2608     5.5355     2.8267 H       
  56 H56           -1.0451     4.2411     0.7431 H       
  57 H57           -2.6619    -2.7085    -0.5106 H       
  58 H58           -4.8106    -3.9415    -0.6704 H       
  59 H59           -6.8321    -0.3188     0.3751 H       
  60 H60           -6.4904    -4.7173     3.8171 H       
  61 H61           -5.8275    -3.1997     2.0028 H       
  62 H62           -9.3076    -3.7502    -1.2310 H       
  63 H63          -10.4409    -6.7389     2.5599 H       
  64 H64          -11.5706    -8.3149     1.8434 H       
  65 H65          -12.4904    -6.9966     2.6078 H       
  66 H66          -13.3173    -8.1560     1.5399 H       
  67 H67          -10.1407    -4.5309    -2.9604 H       
  68 H68          -11.8554    -4.2876    -3.3714 H       
  69 H69          -11.0609    -3.2131    -2.1956 H       
@<TRIPOS>BOND
   1    1    2 1
   2    1    6 am
   3    1   22 2
   4    2    3 2
   5    2    7 1
   6    3    4 1
   7    3   44 1
   8    4    5 2
   9    4   10 1
  10    5    6 1
  11    5   45 1
  12    6   15 1
  13    7    8 2
  14    7    9 am
  15    9   23 1
  16    9   46 1
  17   10   11 2
  18   10   14 1
  19   11   12 1
  20   11   47 1
  21   12   13 2
  22   12   48 1
  23   13   14 1
  24   13   49 1
  25   15   16 1
  26   15   50 1
  27   15   51 1
  28   16   17 ar
  29   16   21 ar
  30   17   18 ar
  31   17   52 1
  32   18   19 ar
  33   18   53 1
  34   19   20 ar
  35   19   54 1
  36   20   21 ar
  37   20   55 1
  38   21   56 1
  39   23   24 ar
  40   23   28 ar
  41   24   25 ar
  42   24   57 1
  43   25   26 ar
  44   25   58 1
  45   26   27 ar
  46   26   29 1
  47   27   28 ar
  48   27   59 1
  49   29   33 1
  50   30   31 ar
  51   30   39 ar
  52   31   32 ar
  53   31   60 1
  54   32   33 ar
  55   32   61 1
  56   33   34 ar
  57   34   35 ar
  58   34   39 ar
  59   35   36 ar
  60   35   62 1
  61   36   37 ar
  62   36   42 1
  63   37   38 ar
  64   37   40 1
  65   38   39 ar
  66   38   63 1
  67   40   41 1
  68   41   64 1
  69   41   65 1
  70   41   66 1
  71   42   43 1
  72   43   67 1
  73   43   68 1
  74   43   69 1

#	End of record

