#	Name: ASD01884747
#	Creating user name:	WinNT
#	Creation time:	15. 06. 2019 19:48

#	Modifying user name:	WinNT
#	Modification time:	15. 06. 2019 19:48

#	Program:	/corina/corina34_cracker 3.40 0067  02.08.2006

@<TRIPOS>MOLECULE
ASD01884747
  35   36    0    0    0
SMALL
NO_CHARGES


@<TRIPOS>ATOM
   1 C1            -0.0171     1.4063     0.0098 C.2     
   2 C2             0.0021    -0.0041     0.0020 C.2     
   3 C3            -1.2284    -0.6974     0.0105 C.2     
   4 C4            -2.3896    -0.0086     0.0258 C.2     
   5 N5            -2.4072     1.3508     0.0333 N.am    
   6 C6            -1.2682     2.0676     0.0312 C.2     
   7 C7             1.2044     2.1537     0.0021 C.1     
   8 N8             2.1734     2.7465    -0.0039 N.1     
   9 C9             1.2749    -0.7363    -0.0151 C.2     
  10 C10           -3.6941     2.0506     0.0493 C.3     
  11 O11           -1.3142     3.2861     0.0385 O.2     
  12 C12           -4.1283     2.2865     1.4973 C.3     
  13 C13           -5.4078     3.1253     1.5159 C.3     
  14 C14           -4.3908     0.9410     2.1767 C.3     
  15 C15           -5.7730     3.4665     2.9620 C.3     
  16 C16            1.7377    -1.5445     0.9845 C.2     
  17 C17            2.9621    -2.1075     0.7056 C.2     
  18 C18            3.4835    -1.7725    -0.4795 C.2     
  19 S19            2.4439    -0.7192    -1.3284 S.3     
  20 H20           -1.2405    -1.7773     0.0045 H       
  21 H21           -3.3245    -0.5492     0.0318 H       
  22 H22           -3.5930     3.0088    -0.4604 H       
  23 H23           -4.4434     1.4451    -0.4606 H       
  24 H24           -3.3392     2.8155     2.0317 H       
  25 H25           -5.2468     4.0460     0.9550 H       
  26 H26           -6.2200     2.5593     1.0598 H       
  27 H27           -5.1799     0.4119     1.6423 H       
  28 H28           -3.4793     0.3434     2.1635 H       
  29 H29           -4.7001     1.1090     3.2083 H       
  30 H30           -6.6845     4.0640     2.9752 H       
  31 H31           -5.9340     2.5458     3.5229 H       
  32 H32           -4.9608     4.0325     3.4180 H       
  33 H33            1.1968    -1.7235     1.9020 H       
  34 H34            3.4652    -2.7708     1.3935 H       
  35 H35            4.4341    -2.1253    -0.8515 H       
@<TRIPOS>BOND
   1    1    2 2
   2    1    7 1
   3    1    6 1
   4    2    3 1
   5    2    9 1
   6    3    4 2
   7    3   20 1
   8    4    5 1
   9    4   21 1
  10    5    6 am
  11    5   10 1
  12    6   11 2
  13    7    8 3
  14    9   16 2
  15    9   19 1
  16   10   12 1
  17   10   22 1
  18   10   23 1
  19   12   14 1
  20   12   13 1
  21   12   24 1
  22   13   15 1
  23   13   25 1
  24   13   26 1
  25   14   27 1
  26   14   28 1
  27   14   29 1
  28   15   30 1
  29   15   31 1
  30   15   32 1
  31   16   17 1
  32   16   33 1
  33   17   18 2
  34   17   34 1
  35   18   19 1
  36   18   35 1

#	End of record

