#	Name: ASD01028141
#	Creating user name:	WinNT
#	Creation time:	15. 06. 2019 18:56

#	Modifying user name:	WinNT
#	Modification time:	15. 06. 2019 18:56

#	Program:	/corina/corina34_cracker 3.40 0067  02.08.2006

@<TRIPOS>MOLECULE
ASD01028141
  78   82    0    0    0
SMALL
NO_CHARGES


@<TRIPOS>ATOM
   1 C1             1.8928     1.7069    -1.0802 C.3     
   2 C2             2.5809     4.0922    -0.7984 C.3     
   3 C3             3.0844     2.6520    -0.9136 C.3     
   4 N4             3.2903     6.4163    -0.5216 N.am    
   5 N5             0.7419     8.5026    -0.8322 N.pl3   
   6 C6             0.6461     7.5828    -1.8836 C.ar    
   7 C7             1.7848     6.9403    -2.3514 C.ar    
   8 C8             3.1246     7.2329    -1.7266 C.3     
   9 C9            -0.5909     7.3070    -2.4572 C.ar    
  10 C10           -0.6801     6.3924    -3.5011 C.ar    
  11 C11            0.4635     5.7601    -3.9650 C.ar    
  12 C12            1.6904     6.0327    -3.3888 C.ar    
  13 O13            2.1795    11.8317     2.7110 O.3     
  14 C14            1.1142    10.9998     2.5616 C.ar    
  15 C15            1.0265    10.2070     1.4523 C.ar    
  16 C16           -0.0694     9.3503     1.2975 C.ar    
  17 C17           -0.2083     8.5083     0.1682 C.ar    
  18 N18           -1.2770     7.7251     0.0971 N.ar    
  19 O19           -1.8411     7.7865    -2.1879 O.3     
  20 C20           -2.6340     7.4626    -3.3454 C.3     
  21 O21           -1.9859     6.2968    -3.8876 O.3     
  22 C22            0.1207    10.9615     3.5498 C.ar    
  23 C23           -0.9674    10.1267     3.4212 C.ar    
  24 C24           -1.0802     9.3097     2.2899 C.ar    
  25 N25           -2.1203     8.4789     2.1174 N.ar    
  26 C26           -2.1961     7.7211     1.0493 C.ar    
  27 O27            0.2325    11.7557     4.6461 O.3     
  28 C28            3.7724     5.0373    -0.6319 C.3     
  29 C29            2.9992     6.9337     0.6883 C.2     
  30 C30            2.3963     0.2667    -1.1953 C.3     
  31 O31            1.2834    -0.6160    -1.3509 O.3     
  32 O32            3.0436     6.1516     1.7833 O.3     
  33 O33            2.6966     8.1061     0.7910 O.2     
  34 C34            2.7180     6.7761     3.0531 C.3     
  35 C35            2.8202     5.7544     4.1562 C.ar    
  36 C36            4.0197     5.5696     4.8181 C.ar    
  37 C37            4.1135     4.6324     5.8299 C.ar    
  38 C38            3.0078     3.8804     6.1801 C.ar    
  39 C39            1.8081     4.0658     5.5189 C.ar    
  40 C40            1.7131     5.0060     4.5100 C.ar    
  41 C41            3.1758    11.4095     3.5053 C.2     
  42 C42           -0.8121    11.6713     5.6175 C.3     
  43 O43            3.1434    10.2969     3.9756 O.2     
  44 C44            4.3348    12.3231     3.8105 C.3     
  45 H45            1.2361     1.7941    -0.2146 H       
  46 H46            1.3418     1.9724    -1.9824 H       
  47 H47            2.0299     4.3577    -1.7007 H       
  48 H48            1.9242     4.1794     0.0671 H       
  49 H49            3.6353     2.3865    -0.0113 H       
  50 H50            3.7411     2.5648    -1.7792 H       
  51 H51            1.4764     9.1357    -0.8072 H       
  52 H52            3.1786     8.2885    -1.4604 H       
  53 H53            3.9164     6.9965    -2.4374 H       
  54 H54            0.3950     5.0496    -4.7755 H       
  55 H55            2.5784     5.5380    -3.7538 H       
  56 H56            1.7990    10.2414     0.6983 H       
  57 H57           -3.6588     7.2311    -3.0552 H       
  58 H58           -2.6141     8.2813    -4.0647 H       
  59 H59           -1.7284    10.1031     4.1872 H       
  60 H60           -3.0466     7.0641     0.9423 H       
  61 H61            4.3234     4.7718     0.2704 H       
  62 H62            4.4291     4.9501    -1.4974 H       
  63 H63            3.0530     0.1795    -2.0609 H       
  64 H64            2.9473     0.0012    -0.2930 H       
  65 H65            1.5287    -1.5480    -1.4302 H       
  66 H66            3.4156     7.5909     3.2467 H       
  67 H67            1.7020     7.1690     3.0148 H       
  68 H68            4.8836     6.1571     4.5445 H       
  69 H69            5.0508     4.4875     6.3465 H       
  70 H70            3.0812     3.1477     6.9702 H       
  71 H71            0.9443     3.4780     5.7923 H       
  72 H72            0.7759     5.1509     3.9933 H       
  73 H73           -0.8719    10.6521     5.9992 H       
  74 H74           -0.6001    12.3552     6.4394 H       
  75 H75           -1.7612    11.9423     5.1550 H       
  76 H76            3.9679    13.2230     4.3041 H       
  77 H77            5.0387    11.8104     4.4661 H       
  78 H78            4.8361    12.5966     2.8821 H       
@<TRIPOS>BOND
   1    1   30 1
   2    1    3 1
   3    1   45 1
   4    1   46 1
   5    2    3 1
   6    2   28 1
   7    2   47 1
   8    2   48 1
   9    3   49 1
  10    3   50 1
  11    4   28 1
  12    4   29 am
  13    4    8 1
  14    5    6 1
  15    5   17 1
  16    5   51 1
  17    6    7 ar
  18    6    9 ar
  19    7    8 1
  20    7   12 ar
  21    8   52 1
  22    8   53 1
  23    9   10 ar
  24    9   19 1
  25   10   11 ar
  26   10   21 1
  27   11   12 ar
  28   11   54 1
  29   12   55 1
  30   13   14 1
  31   13   41 1
  32   14   15 ar
  33   14   22 ar
  34   15   16 ar
  35   15   56 1
  36   16   17 ar
  37   16   24 ar
  38   17   18 ar
  39   18   26 ar
  40   19   20 1
  41   20   21 1
  42   20   57 1
  43   20   58 1
  44   22   23 ar
  45   22   27 1
  46   23   24 ar
  47   23   59 1
  48   24   25 ar
  49   25   26 ar
  50   26   60 1
  51   27   42 1
  52   28   61 1
  53   28   62 1
  54   29   32 1
  55   29   33 2
  56   30   31 1
  57   30   63 1
  58   30   64 1
  59   31   65 1
  60   32   34 1
  61   34   35 1
  62   34   66 1
  63   34   67 1
  64   35   36 ar
  65   35   40 ar
  66   36   37 ar
  67   36   68 1
  68   37   38 ar
  69   37   69 1
  70   38   39 ar
  71   38   70 1
  72   39   40 ar
  73   39   71 1
  74   40   72 1
  75   41   43 2
  76   41   44 1
  77   42   73 1
  78   42   74 1
  79   42   75 1
  80   44   76 1
  81   44   77 1
  82   44   78 1

#	End of record

