#	Name: ASD03730742
#	Creating user name:	WinNT
#	Creation time:	15. 06. 2019 20:44

#	Modifying user name:	WinNT
#	Modification time:	15. 06. 2019 20:44

#	Program:	/corina/corina34_cracker 3.40 0067  02.08.2006

@<TRIPOS>MOLECULE
ASD03730742
  63   69    0    0    0
SMALL
NO_CHARGES


@<TRIPOS>ATOM
   1 C1             1.3737    -1.2081    -2.4843 C.2     
   2 C2             0.4794    -1.1534    -1.3087 C.ar    
   3 C3             0.7368    -0.2530    -0.2733 C.ar    
   4 C4            -0.1016    -0.2071     0.8210 C.ar    
   5 C5            -1.1959    -1.0510     0.8940 C.ar    
   6 C6            -1.4567    -1.9456    -0.1285 C.ar    
   7 C7            -0.6293    -1.9977    -1.2314 C.ar    
   8 O8             2.3153    -0.4438    -2.5679 O.2     
   9 N9             1.1483    -2.1091    -3.4611 N.am    
  10 C10            1.9283     0.6665    -0.3508 C.3     
  11 O11            0.1198    -0.7047     6.4712 O.3     
  12 C12            0.0791    -0.3774     7.8727 C.3     
  13 O13            1.3655     0.2190     8.1224 O.3     
  14 C14            1.7579     0.7553     6.9294 C.ar    
  15 C15            0.9922     0.1861     5.9144 C.ar    
  16 C16            2.7215     1.6992     6.6225 C.ar    
  17 C17            2.9349     2.0855     5.3027 C.ar    
  18 C18            2.1695     1.5039     4.2966 C.ar    
  19 C19            1.2037     0.5670     4.6000 C.ar    
  20 O20            3.8099     2.9989     4.7923 O.3     
  21 C21            2.6468     2.0964     2.9978 C.3     
  22 C22            3.9762     2.7605     3.3813 C.3     
  23 N23            2.0436     1.4228     0.8985 N.am    
  24 C24            2.8283     1.0552     1.9310 C.2     
  25 C25            1.6719     3.0837     2.4282 C.ar    
  26 C26            1.1079     4.2465     2.9037 C.ar    
  27 C27            0.2171     4.9563     2.1183 C.ar    
  28 C28           -0.1058     4.4949     0.8551 C.ar    
  29 C29            0.4557     3.3302     0.3747 C.ar    
  30 C30            1.3537     2.6095     1.1582 C.ar    
  31 O31            3.5415     0.0758     1.9872 O.2     
  32 C32            1.8785    -2.0455    -4.6543 C.ar    
  33 C33            1.3698    -2.6206    -5.8114 C.ar    
  34 C34            2.0904    -2.5575    -6.9876 C.ar    
  35 C35            3.3224    -1.9204    -7.0134 C.ar    
  36 C36            3.8312    -1.3457    -5.8579 C.ar    
  37 C37            3.1090    -1.4025    -4.6823 C.ar    
  38 O38            4.0318    -1.8595    -8.1718 O.3     
  39 C39            5.2925    -1.1882    -8.1260 C.3     
  40 H40            0.0965     0.4888     1.6228 H       
  41 H41           -1.8491    -1.0113     1.7531 H       
  42 H42           -2.3124    -2.6015    -0.0654 H       
  43 H43           -0.8365    -2.6935    -2.0311 H       
  44 H44            0.4804    -2.8015    -3.3375 H       
  45 H45            2.8325     0.0773    -0.5036 H       
  46 H46            1.8001     1.3579    -1.1836 H       
  47 H47           -0.7197     0.3358     8.0764 H       
  48 H48           -0.0484    -1.2783     8.4729 H       
  49 H49            3.3121     2.1391     7.4124 H       
  50 H50            0.6112     0.1291     3.8103 H       
  51 H51            4.1096     3.6990     2.8432 H       
  52 H52            4.8128     2.0860     3.1987 H       
  53 H53            1.3614     4.6048     3.8905 H       
  54 H54           -0.2247     5.8687     2.4906 H       
  55 H55           -0.8013     5.0489     0.2421 H       
  56 H56            0.1982     2.9760    -0.6125 H       
  57 H57            0.4110    -3.1173    -5.7913 H       
  58 H58            1.6950    -3.0047    -7.8876 H       
  59 H59            4.7906    -0.8501    -5.8786 H       
  60 H60            3.5030    -0.9509    -3.7839 H       
  61 H61            5.7528    -1.2118    -9.1137 H       
  62 H62            5.1419    -0.1529    -7.8200 H       
  63 H63            5.9443    -1.6877    -7.4093 H       
@<TRIPOS>BOND
   1    1    2 1
   2    1    8 2
   3    1    9 am
   4    2    3 ar
   5    2    7 ar
   6    3    4 ar
   7    3   10 1
   8    4    5 ar
   9    4   40 1
  10    5    6 ar
  11    5   41 1
  12    6    7 ar
  13    6   42 1
  14    7   43 1
  15    9   32 1
  16    9   44 1
  17   10   23 1
  18   10   45 1
  19   10   46 1
  20   11   12 1
  21   11   15 1
  22   12   13 1
  23   12   47 1
  24   12   48 1
  25   13   14 1
  26   14   15 ar
  27   14   16 ar
  28   15   19 ar
  29   16   17 ar
  30   16   49 1
  31   17   18 ar
  32   17   20 1
  33   18   19 ar
  34   18   21 1
  35   19   50 1
  36   20   22 1
  37   21   22 1
  38   21   24 1
  39   21   25 1
  40   22   51 1
  41   22   52 1
  42   23   24 am
  43   23   30 1
  44   24   31 2
  45   25   26 ar
  46   25   30 ar
  47   26   27 ar
  48   26   53 1
  49   27   28 ar
  50   27   54 1
  51   28   29 ar
  52   28   55 1
  53   29   30 ar
  54   29   56 1
  55   32   33 ar
  56   32   37 ar
  57   33   34 ar
  58   33   57 1
  59   34   35 ar
  60   34   58 1
  61   35   36 ar
  62   35   38 1
  63   36   37 ar
  64   36   59 1
  65   37   60 1
  66   38   39 1
  67   39   61 1
  68   39   62 1
  69   39   63 1

#	End of record

