#	Name: ASD01510023
#	Creating user name:	WinNT
#	Creation time:	15. 06. 2019 19:21

#	Modifying user name:	WinNT
#	Modification time:	15. 06. 2019 19:21

#	Program:	/corina/corina34_cracker 3.40 0067  02.08.2006

@<TRIPOS>MOLECULE
ASD01510023
  56   58    0    0    0
SMALL
NO_CHARGES


@<TRIPOS>ATOM
   1 C1             0.6254     0.9812     0.1154 C.3     
   2 O2             0.6169    -0.4418    -0.0152 O.3     
   3 C3            -0.5851    -1.0621     0.0844 C.ar    
   4 N4            -1.6917    -0.3571     0.2943 N.ar    
   5 C5            -2.8692    -0.9549     0.3928 C.ar    
   6 N6            -2.9959    -2.2690     0.2882 N.ar    
   7 C7            -1.9350    -3.0411     0.0781 C.ar    
   8 C8            -0.6777    -2.4484    -0.0377 C.ar    
   9 S9             0.7599    -3.4282    -0.3171 S.3     
  10 C10            0.7802    -3.4464    -2.0788 C.ar    
  11 N11            1.7442    -4.1044    -2.7066 N.ar    
  12 C12            1.7907    -4.1401    -4.0350 C.ar    
  13 N13            2.8057    -4.8334    -4.6861 N.am    
  14 C14            3.8078    -5.3866    -3.9746 C.2     
  15 O15            3.8761    -5.2012    -2.7781 O.2     
  16 C16            4.8435    -6.2354    -4.6659 C.3     
  17 C17            0.8105    -3.4749    -4.7654 C.ar    
  18 C18           -0.1858    -2.7947    -4.0716 C.ar    
  19 N19           -0.1721    -2.8062    -2.7420 N.ar    
  20 N20           -1.1860    -2.1160    -4.7601 N.am    
  21 C21           -2.2029    -1.5467    -4.0831 C.2     
  22 O22           -2.1988    -1.5460    -2.8704 O.2     
  23 C23           -3.3450    -0.9110    -4.8331 C.3     
  24 O24           -2.0736    -4.3861    -0.0278 O.3     
  25 C25           -3.3958    -4.9138     0.0966 C.3     
  26 N26           -4.0004    -0.1841     0.6120 N.3     
  27 C27           -5.2023    -1.0239     0.6913 C.3     
  28 C28           -6.4053    -0.1602     1.0771 C.3     
  29 C29           -6.5960     0.9385     0.0278 C.3     
  30 C30           -5.3130     1.7686    -0.0696 C.3     
  31 C31           -4.1417     0.8489    -0.4221 C.3     
  32 H32            1.6466     1.3491     0.0161 H       
  33 H33            0.0032     1.4214    -0.6638 H       
  34 H34            0.2328     1.2586     1.0937 H       
  35 H35            2.7922    -4.9189    -5.6523 H       
  36 H36            5.3550    -5.6403    -5.4224 H       
  37 H37            5.5678    -6.5929    -3.9340 H       
  38 H38            4.3569    -7.0870    -5.1413 H       
  39 H39            0.8229    -3.4861    -5.8452 H       
  40 H40           -1.1515    -2.0524    -5.7274 H       
  41 H41           -3.8313    -1.6604    -5.4577 H       
  42 H42           -4.0660    -0.5068    -4.1226 H       
  43 H43           -2.9638    -0.1062    -5.4616 H       
  44 H44           -3.3654    -5.9984    -0.0075 H       
  45 H45           -3.8002    -4.6539     1.0748 H       
  46 H46           -4.0303    -4.4917    -0.6828 H       
  47 H47           -5.3849    -1.4891    -0.2774 H       
  48 H48           -5.0551    -1.7985     1.4440 H       
  49 H49           -7.3001    -0.7810     1.1207 H       
  50 H50           -6.2292     0.2944     2.0521 H       
  51 H51           -6.8106     0.4849    -0.9398 H       
  52 H52           -7.4251     1.5825     0.3212 H       
  53 H53           -5.4274     2.5258    -0.8453 H       
  54 H54           -5.1197     2.2535     0.8873 H       
  55 H55           -3.2242     1.4346    -0.4782 H       
  56 H56           -4.3293     0.3750    -1.3856 H       
@<TRIPOS>BOND
   1    1    2 1
   2    1   32 1
   3    1   33 1
   4    1   34 1
   5    2    3 1
   6    3    4 ar
   7    3    8 ar
   8    4    5 ar
   9    5    6 ar
  10    5   26 1
  11    6    7 ar
  12    7    8 ar
  13    7   24 1
  14    8    9 1
  15    9   10 1
  16   10   11 ar
  17   10   19 ar
  18   11   12 ar
  19   12   13 1
  20   12   17 ar
  21   13   14 am
  22   13   35 1
  23   14   15 2
  24   14   16 1
  25   16   36 1
  26   16   37 1
  27   16   38 1
  28   17   18 ar
  29   17   39 1
  30   18   19 ar
  31   18   20 1
  32   20   21 am
  33   20   40 1
  34   21   22 2
  35   21   23 1
  36   23   41 1
  37   23   42 1
  38   23   43 1
  39   24   25 1
  40   25   44 1
  41   25   45 1
  42   25   46 1
  43   26   27 1
  44   26   31 1
  45   27   28 1
  46   27   47 1
  47   27   48 1
  48   28   29 1
  49   28   49 1
  50   28   50 1
  51   29   30 1
  52   29   51 1
  53   29   52 1
  54   30   31 1
  55   30   53 1
  56   30   54 1
  57   31   55 1
  58   31   56 1

#	End of record

