#	Name: ASD00170702
#	Creating user name:	WinNT
#	Creation time:	15. 06. 2019 18:32

#	Modifying user name:	WinNT
#	Modification time:	15. 06. 2019 18:32

#	Program:	/corina/corina34_cracker 3.40 0067  02.08.2006

@<TRIPOS>MOLECULE
ASD00170702
  21   23    0    0    0
SMALL
NO_CHARGES


@<TRIPOS>ATOM
   1 C1            -0.0162     1.3445     0.0094 C.2     
   2 C2             0.0021    -0.0041     0.0020 C.2     
   3 C3            -1.3286    -0.5987     0.0121 C.2     
   4 C4            -2.3363     0.3474     0.0275 C.2     
   5 S5            -1.6548     1.9624     0.0360 S.3     
   6 C6             0.9902    -1.1214    -0.0138 C.ar    
   7 C7             0.2957    -2.3402    -0.0133 C.ar    
   8 C8            -1.1518    -2.0625     0.0026 C.2     
   9 C9             2.3818    -1.1147    -0.0277 C.ar    
  10 C10            3.0754    -2.3094    -0.0410 C.ar    
  11 C11            2.3943    -3.5150    -0.0405 C.ar    
  12 C12            1.0133    -3.5400    -0.0268 C.ar    
  13 O13           -2.0426    -2.8937     0.0071 O.2     
  14 N14           -3.6814     0.0623     0.0387 N.pl3   
  15 H15            0.8678     1.9649     0.0043 H       
  16 Cl16           0.1707    -5.0578    -0.0253 Cl      
  17 H17            2.9185    -0.1775    -0.0285 H       
  18 H18            4.1553    -2.3030    -0.0521 H       
  19 H19            2.9470    -4.4428    -0.0510 H       
  20 H20           -3.9817    -0.8600     0.0360 H       
  21 H21           -4.3300     0.7835     0.0493 H       
@<TRIPOS>BOND
   1    1    2 2
   2    1   15 1
   3    1    5 1
   4    2    3 1
   5    2    6 1
   6    3    4 2
   7    3    8 1
   8    4    5 1
   9    4   14 1
  10    6    7 ar
  11    6    9 ar
  12    7    8 1
  13    7   12 ar
  14    8   13 2
  15    9   10 ar
  16    9   17 1
  17   10   11 ar
  18   10   18 1
  19   11   12 ar
  20   11   19 1
  21   12   16 1
  22   14   20 1
  23   14   21 1

#	End of record

