#	Name: ASD06610001
#	Creating user name:	WinNT
#	Creation time:	15. 06. 2019 21:07

#	Modifying user name:	WinNT
#	Modification time:	15. 06. 2019 21:07

#	Program:	/corina/corina34_cracker 3.40 0067  02.08.2006

@<TRIPOS>MOLECULE
ASD06610001
 343  344    0    0    0
SMALL
NO_CHARGES


@<TRIPOS>ATOM
   1 C1            -5.2364   -17.2113     9.0089 C.2     
   2 O2            -5.6697   -18.3411     9.0911 O.2     
   3 N3            -3.0542   -18.1996     9.3966 N.am    
   4 C4            -3.7482   -16.9744     8.9923 C.3     
   5 C5            -3.3099   -16.5825     7.5798 C.3     
   6 C6            -1.8028   -16.3190     7.5681 C.3     
   7 O7            -3.6147   -17.6452     6.6743 O.3     
   8 C8            -8.1887   -15.2289     8.1622 C.2     
   9 O9            -7.5194   -14.2874     7.7926 O.2     
  10 N10           -6.0857   -16.1681     8.9268 N.am    
  11 C11           -7.5288   -16.4038     8.8371 C.3     
  12 C12           -8.1062   -16.5743    10.2437 C.3     
  13 C13           -7.4362   -17.7670    10.9288 C.3     
  14 C14           -7.8462   -15.3059    11.0588 C.3     
  15 C15          -11.6064   -14.0015     7.7427 C.2     
  16 O16          -12.0544   -14.8176     8.5201 O.2     
  17 N17           -9.5226   -15.2244     7.9695 N.am    
  18 C18          -10.1641   -14.0823     7.3135 C.3     
  19 C19          -10.0930   -14.2601     5.7955 C.3     
  20 C20           -8.6534   -14.2179     5.3517 C.ar    
  21 C21           -7.9144   -15.3845     5.2907 C.ar    
  22 C22           -6.5939   -15.3458     4.8837 C.ar    
  23 C23           -6.0126   -14.1404     4.5372 C.ar    
  24 C24           -6.7518   -12.9739     4.5973 C.ar    
  25 C25           -8.0736   -13.0132     5.0002 C.ar    
  26 C26          -14.6004   -12.2289     6.6217 C.2     
  27 O27          -14.0531   -11.8248     5.6176 O.2     
  28 N28          -12.3985   -13.0224     7.2628 N.am    
  29 C29          -13.8006   -12.9438     7.6801 C.3     
  30 C30          -13.8978   -12.1747     8.9992 C.3     
  31 C31          -13.1906   -12.9638    10.1029 C.3     
  32 C32          -13.2878   -12.1947    11.4219 C.3     
  33 N33          -12.6106   -12.9502    12.4788 N.pl3   
  34 C34          -12.5677   -12.4528    13.7598 C.2     
  35 N35          -11.9652   -13.1250    14.7000 N.2     
  36 N36          -13.1602   -11.2464    14.0490 N.pl3   
  37 C37          -17.9235   -10.7236     6.3890 C.2     
  38 O38          -18.1252   -10.8499     7.5782 O.2     
  39 N39          -15.9239   -12.0386     6.7909 N.am    
  40 C40          -16.7014   -11.3436     5.7619 C.3     
  41 C41          -17.1314   -12.3427     4.6859 C.3     
  42 O42          -18.0274   -13.2994     5.2550 O.3     
  43 C43          -21.0532    -9.2623     5.1921 C.2     
  44 O44          -20.8458    -9.6142     4.0501 O.2     
  45 N45          -18.7924   -10.0289     5.6281 N.am    
  46 C46          -19.9804    -9.4262     6.2377 C.3     
  47 C47          -19.6181    -8.0567     6.8156 C.3     
  48 O48          -19.2489    -7.1742     5.7540 O.3     
  49 C49          -24.2165    -7.4512     4.9147 C.2     
  50 O50          -24.0271    -6.8496     5.9506 O.2     
  51 N51          -22.2431    -8.7246     5.5259 N.am    
  52 C52          -23.2860    -8.5652     4.5094 C.3     
  53 C53          -24.0766    -9.8688     4.3812 C.3     
  54 C54          -23.1588   -10.9717     3.8500 C.3     
  55 C55          -23.9494   -12.2754     3.7218 C.3     
  56 N56          -23.0706   -13.3314     3.2132 N.pl3   
  57 C57          -23.5633   -14.5995     3.0148 C.2     
  58 N58          -24.8123   -14.8621     3.2793 N.2     
  59 N59          -22.7386   -15.5906     2.5375 N.pl3   
  60 C60          -27.5102    -6.2520     3.8773 C.2     
  61 O61          -27.6960    -7.2127     3.1608 O.2     
  62 N62          -25.2590    -7.1235     4.1260 N.am    
  63 C63          -26.1636    -6.0405     4.5200 C.3     
  64 C64          -25.5847    -4.7004     4.0619 C.3     
  65 C65          -24.2774    -4.4277     4.8086 C.3     
  66 C66          -23.7072    -3.1077     4.3574 C.2     
  67 O67          -24.2869    -2.4523     3.5241 O.2     
  68 O68          -22.5552    -2.6600     4.8812 O.3     
  69 C69          -30.5257    -4.2552     3.3455 C.2     
  70 O70          -29.9900    -3.2401     3.7371 O.2     
  71 N71          -28.5080    -5.3735     4.0989 N.am    
  72 C72          -29.8171    -5.5790     3.4742 C.3     
  73 C73          -30.6532    -6.5230     4.3407 C.3     
  74 C74          -29.9968    -7.9047     4.3692 C.3     
  75 C75          -30.8329    -8.8487     5.2357 C.3     
  76 C76          -30.1766   -10.2305     5.2642 C.3     
  77 N77          -30.9793   -11.1368     6.0962 N.3     
  78 C78          -33.9325    -3.1420     2.6258 C.2     
  79 O79          -34.3745    -4.2695     2.6920 O.2     
  80 N80          -31.7548    -4.1995     2.7953 N.am    
  81 C81          -32.4437    -2.9126     2.6703 C.3     
  82 C82          -31.9961    -2.2175     1.3829 C.3     
  83 C83          -30.5086    -1.8726     1.4802 C.3     
  84 C84          -30.0610    -1.1775     0.1928 C.3     
  85 N85          -28.6368    -0.8472     0.2860 N.pl3   
  86 C86          -28.0082    -0.2134    -0.7597 C.2     
  87 N87          -26.7411     0.0805    -0.6768 N.2     
  88 N88          -28.7163     0.1105    -1.8927 N.pl3   
  89 C89          -36.8839    -1.1696     1.7529 C.2     
  90 O90          -36.2141    -0.2554     1.3211 O.2     
  91 N91          -34.7726    -2.0943     2.5124 N.am    
  92 C92          -36.2199    -2.3173     2.4691 C.3     
  93 C93          -36.7643    -2.4115     3.8959 C.3     
  94 C94          -36.1843    -3.6498     4.5823 C.3     
  95 C95          -36.7287    -3.7440     6.0091 C.3     
  96 N96          -36.1733    -4.9296     6.6664 N.pl3   
  97 C97          -36.5217    -5.2230     7.9636 C.2     
  98 N98          -37.3460    -4.4463     8.6086 N.2     
  99 N99          -36.0005    -6.3357     8.5804 N.pl3   
 100 C100         -40.2978     0.0752     1.3551 C.2     
 101 O101         -40.7351    -0.6962     2.1825 O.2     
 102 N102         -38.2220    -1.1592     1.5922 N.am    
 103 C103         -38.8674    -0.0434     0.8959 C.3     
 104 C104         -38.8354    -0.2967    -0.6127 C.3     
 105 O105         -39.6295    -1.4442    -0.9200 O.3     
 106 C106         -43.2998     1.8251     0.2196 C.2     
 107 O107         -42.7731     2.1728    -0.8161 O.2     
 108 N108         -41.0912     1.0386     0.8463 N.am    
 109 C109         -42.4817     1.1540     1.2927 C.3     
 110 C110         -42.5385     1.9883     2.5739 C.3     
 111 C111         -45.3155     4.0928    -0.6765 C.2     
 112 O112         -44.6169     4.6481     0.1449 O.2     
 113 N113         -44.6166     2.0389     0.4108 N.am    
 114 C114         -45.4341     2.5905    -0.6726 C.3     
 115 C115         -46.8967     2.1950    -0.4601 C.3     
 116 C116         -47.0318     0.6974    -0.5607 C.2     
 117 O117         -46.0804     0.0252    -0.8814 O.2     
 118 O118         -48.2090     0.1103    -0.2940 O.3     
 119 C119         -47.3301     6.8303    -1.7868 C.2     
 120 O120         -48.2485     6.0741    -2.0229 O.2     
 121 N121         -45.9857     4.8194    -1.5927 N.am    
 122 C122         -45.9485     6.2829    -1.5368 C.3     
 123 C123         -44.9898     6.8099    -2.6064 C.3     
 124 C124         -45.3805     6.2350    -3.9694 C.3     
 125 C125         -46.7398     6.7978    -4.3896 C.3     
 126 C126         -43.5605     6.3847    -2.2643 C.3     
 127 C127         -48.7125    10.1224    -2.5707 C.2     
 128 O128         -47.6142    10.6351    -2.6134 O.2     
 129 N129         -47.5452     8.1602    -1.7481 N.am    
 130 C130         -48.8620     8.6998    -2.0965 C.3     
 131 C131         -49.7693     8.6653    -0.8651 C.3     
 132 C132         -50.0182     7.2340    -0.4644 C.ar    
 133 C133         -49.1693     6.6090     0.4298 C.ar    
 134 C134         -49.3976     5.2960     0.7973 C.ar    
 135 C135         -50.4750     4.6083     0.2709 C.ar    
 136 C136         -51.3244     5.2336    -0.6226 C.ar    
 137 C137         -51.0986     6.5479    -0.9868 C.ar    
 138 C138         -49.6448    13.1350    -2.2202 C.2     
 139 O139         -49.7490    12.6866    -1.1031 O.2     
 140 N140         -49.7993    10.8249    -2.9473 N.am    
 141 C141         -49.6540    12.2079    -3.4082 C.3     
 142 C142         -50.8253    12.5655    -4.3252 C.3     
 143 C143         -50.6100    13.9648    -4.9054 C.3     
 144 C144         -51.7154    14.2729    -5.9174 C.3     
 145 C145         -52.1275    12.5412    -3.5223 C.3     
 146 O146         -49.5210    14.4590    -2.4030 O.3     
 147 C147          -1.8220   -18.1287     9.9380 C.2     
 148 O148          -1.2877   -17.0507    10.0905 O.2     
 149 C149          13.5549   -25.8427    17.3699 C.3     
 150 C150          12.8301   -24.5632    16.9477 C.3     
 151 C151          11.4602   -24.9208    16.3676 C.3     
 152 C152          10.7354   -23.6412    15.9454 C.3     
 153 C153           9.3655   -23.9988    15.3653 C.3     
 154 C154           8.6407   -22.7193    14.9431 C.3     
 155 C155           7.2708   -23.0769    14.3631 C.3     
 156 C156           6.5460   -21.7973    13.9408 C.3     
 157 C157           5.1761   -22.1549    13.3608 C.3     
 158 C158           4.4513   -20.8754    12.9385 C.3     
 159 C159           3.0814   -21.2330    12.3585 C.3     
 160 C160           2.3566   -19.9534    11.9362 C.3     
 161 C161           0.9867   -20.3110    11.3562 C.3     
 162 C162           0.2619   -19.0314    10.9339 C.3     
 163 C163          -1.1080   -19.3890    10.3539 C.3     
 164 H164          -3.4814   -19.0618     9.2746 H       
 165 H165          -3.5004   -16.1708     9.6857 H       
 166 H166          -3.8389   -15.6803     7.2724 H       
 167 H167          -1.2698   -17.2493     7.7645 H       
 168 H168          -1.5093   -15.9311     6.5926 H       
 169 H169          -1.5556   -15.5889     8.3388 H       
 170 H170          -4.5549   -17.8667     6.6302 H       
 171 H171          -5.7415   -15.2612     8.9270 H       
 172 H172          -7.7140   -17.3074     8.2563 H       
 173 H173          -9.1799   -16.7496    10.1769 H       
 174 H174          -6.3625   -17.5917    10.9955 H       
 175 H175          -7.8475   -17.8885    11.9309 H       
 176 H176          -7.6214   -18.6707    10.3480 H       
 177 H177          -8.3235   -14.4561    10.5707 H       
 178 H178          -8.2575   -15.4273    12.0609 H       
 179 H179          -6.7725   -15.1305    11.1256 H       
 180 H180         -10.0579   -15.9774     8.2651 H       
 181 H181          -9.6488   -13.1644     7.5963 H       
 182 H182         -10.5297   -15.2204     5.5213 H       
 183 H183         -10.6468   -13.4570     5.3093 H       
 184 H184          -8.3686   -16.3262     5.5615 H       
 185 H185          -6.0164   -16.2571     4.8367 H       
 186 H186          -4.9807   -14.1101     4.2198 H       
 187 H187          -6.2975   -12.0322     4.3268 H       
 188 H188          -8.6522   -12.1024     5.0436 H       
 189 H189         -12.0402   -12.3697     6.6411 H       
 190 H190         -14.1961   -13.9503     7.8164 H       
 191 H191         -13.4223   -11.2003     8.8875 H       
 192 H192         -14.9463   -12.0391     9.2643 H       
 193 H193         -13.6661   -13.9382    10.2146 H       
 194 H194         -12.1421   -13.0994     9.8378 H       
 195 H195         -12.8123   -11.2202    11.3103 H       
 196 H196         -14.3363   -12.0591    11.6871 H       
 197 H197         -12.1926   -13.8014    12.2747 H       
 198 H198         -11.9349   -12.7741    15.6038 H       
 199 H199         -13.6086   -10.7461    13.3492 H       
 200 H200         -13.1299   -10.8955    14.9527 H       
 201 H201         -16.3616   -12.3618     7.5939 H       
 202 H202         -16.0896   -10.5632     5.3094 H       
 203 H203         -17.6329   -11.8117     3.8767 H       
 204 H204         -16.2529   -12.8556     4.2944 H       
 205 H205         -18.3416   -13.9655     4.6283 H       
 206 H206         -18.6311    -9.9279     4.6770 H       
 207 H207         -20.3466   -10.0720     7.0358 H       
 208 H208         -20.4777    -7.6472     7.3462 H       
 209 H209         -18.7819    -8.1636     7.5066 H       
 210 H210         -19.0061    -6.2855     6.0478 H       
 211 H211         -22.4090    -8.4431     6.4392 H       
 212 H212         -22.8257    -8.3237     3.5514 H       
 213 H213         -24.4630   -10.1571     5.3588 H       
 214 H214         -24.9073    -9.7235     3.6906 H       
 215 H215         -22.7724   -10.6835     2.8724 H       
 216 H216         -22.3281   -11.1171     4.5406 H       
 217 H217         -24.3358   -12.5637     4.6994 H       
 218 H218         -24.7801   -12.1301     3.0312 H       
 219 H219         -22.1411   -13.1360     3.0164 H       
 220 H220         -25.1599   -15.7568     3.1393 H       
 221 H221         -21.8091   -15.3951     2.3408 H       
 222 H222         -23.0862   -16.4853     2.3976 H       
 223 H223         -25.4105    -7.6046     3.2975 H       
 224 H224         -26.2751    -6.0366     5.6043 H       
 225 H225         -25.3902    -4.7360     2.9900 H       
 226 H226         -26.2980    -3.9044     4.2756 H       
 227 H227         -24.4718    -4.3921     5.8805 H       
 228 H228         -23.5641    -5.2237     4.5949 H       
 229 H229         -22.2289    -1.8081     4.5606 H       
 230 H230         -28.3594    -4.6051     4.6720 H       
 231 H231         -29.6829    -6.0169     2.4851 H       
 232 H232         -30.7128    -6.1280     5.3549 H       
 233 H233         -31.6567    -6.6059     3.9235 H       
 234 H234         -29.9372    -8.2996     3.3550 H       
 235 H235         -28.9932    -7.8217     4.7864 H       
 236 H236         -30.8925    -8.4538     6.2499 H       
 237 H237         -31.8365    -8.9317     4.8185 H       
 238 H238         -30.1169   -10.6254     4.2500 H       
 239 H239         -29.1730   -10.1475     5.6814 H       
 240 H240         -30.5663   -12.0567     6.1310 H       
 241 H241         -31.1035   -10.7609     7.0243 H       
 242 H242         -32.1833    -5.0114     2.4821 H       
 243 H243         -32.1983    -2.2844     3.5266 H       
 244 H244         -32.1601    -2.8825     0.5350 H       
 245 H245         -32.5728    -1.3030     1.2444 H       
 246 H246         -30.3446    -1.2076     2.3281 H       
 247 H247         -29.9319    -2.7871     1.6188 H       
 248 H248         -30.2251    -1.8424    -0.6551 H       
 249 H249         -30.6377    -0.2630     0.0543 H       
 250 H250         -28.1372    -1.0757     1.0854 H       
 251 H251         -26.2976     0.5277    -1.4145 H       
 252 H252         -29.6593    -0.1081    -1.9544 H       
 253 H253         -28.2729     0.5577    -2.6305 H       
 254 H254         -34.4191    -1.1926     2.4594 H       
 255 H255         -36.4287    -3.2463     1.9385 H       
 256 H256         -36.4785    -1.5196     4.4534 H       
 257 H257         -37.8512    -2.4884     3.8657 H       
 258 H258         -36.4701    -4.5417     4.0248 H       
 259 H259         -35.0974    -3.5729     4.6125 H       
 260 H260         -36.4429    -2.8521     6.5667 H       
 261 H261         -37.8156    -3.8209     5.9789 H       
 262 H262         -35.5599    -5.5077     6.1864 H       
 263 H263         -37.5918    -4.6533     9.5239 H       
 264 H264         -35.3870    -6.9137     8.1004 H       
 265 H265         -36.2462    -6.5427     9.4957 H       
 266 H266         -38.7577    -1.8904     1.9375 H       
 267 H267         -38.3358     0.8813     1.1204 H       
 268 H268         -39.2349     0.5723    -1.1355 H       
 269 H269         -37.8072    -0.4707    -0.9301 H       
 270 H270         -39.6549    -1.6644    -1.8613 H       
 271 H271         -40.7415     1.6557     0.1845 H       
 272 H272         -42.8842     0.1601     1.4881 H       
 273 H273         -42.1360     2.9822     2.3784 H       
 274 H274         -43.5731     2.0741     2.9060 H       
 275 H275         -41.9469     1.5029     3.3501 H       
 276 H276         -45.0232     1.8275     1.2657 H       
 277 H277         -45.0861     2.1961    -1.6273 H       
 278 H278         -47.2223     2.5237     0.5268 H       
 279 H279         -47.5154     2.6676    -1.2229 H       
 280 H280         -48.2470    -0.8528    -0.3720 H       
 281 H281         -46.4926     4.3733    -2.2890 H       
 282 H282         -45.6046     6.6003    -0.5524 H       
 283 H283         -45.0468     7.8979    -2.6411 H       
 284 H284         -44.6287     6.5106    -4.7090 H       
 285 H285         -45.4423     5.1489    -3.9014 H       
 286 H286         -46.9072     6.5918    -5.4468 H       
 287 H287         -47.5260     6.3278    -3.7989 H       
 288 H288         -46.7544     7.8749    -4.2226 H       
 289 H289         -43.4742     5.3013    -2.3465 H       
 290 H290         -42.8649     6.8582    -2.9571 H       
 291 H291         -43.3241     6.6917    -1.2455 H       
 292 H292         -46.8282     8.7602    -1.4896 H       
 293 H293         -49.3033     8.0968    -2.8900 H       
 294 H294         -49.2866     9.1940    -0.0432 H       
 295 H295         -50.7184     9.1472    -1.0995 H       
 296 H296         -48.3276     7.1463     0.8411 H       
 297 H297         -48.7340     4.8075     1.4954 H       
 298 H298         -50.6529     3.5823     0.5574 H       
 299 H299         -52.1660     4.6962    -1.0342 H       
 300 H300         -51.7643     7.0376    -1.6821 H       
 301 H301         -50.6777    10.4148    -2.9131 H       
 302 H302         -48.7180    12.3115    -3.9571 H       
 303 H303         -50.8855    11.8408    -5.1372 H       
 304 H304         -50.6385    14.6999    -4.1012 H       
 305 H305         -49.6406    14.0070    -5.4020 H       
 306 H306         -52.6847    14.2307    -5.4208 H       
 307 H307         -51.5620    15.2698    -6.3308 H       
 308 H308         -51.6869    13.5378    -6.7217 H       
 309 H309         -52.0673    13.2659    -2.7104 H       
 310 H310         -52.9620    12.7960    -4.1756 H       
 311 H311         -52.2809    11.5443    -3.1090 H       
 312 H312         -49.5203    15.0134    -1.6108 H       
 313 H313          12.9650   -26.3622    18.1251 H       
 314 H314          13.6853   -26.4896    16.5024 H       
 315 H315          14.5309   -25.5880    17.7831 H       
 316 H316          12.6997   -23.9163    17.8152 H       
 317 H317          13.4201   -24.0437    16.1925 H       
 318 H318          11.5906   -25.5677    15.5001 H       
 319 H319          10.8703   -25.4402    17.1228 H       
 320 H320          10.6050   -22.9944    16.8129 H       
 321 H321          11.3254   -23.1218    15.1902 H       
 322 H322           9.4959   -24.6457    14.4978 H       
 323 H323           8.7756   -24.5183    16.1205 H       
 324 H324           8.5103   -22.0724    15.8106 H       
 325 H325           9.2306   -22.1998    14.1879 H       
 326 H326           7.4012   -23.7237    13.4955 H       
 327 H327           6.6809   -23.5963    15.1182 H       
 328 H328           6.4156   -21.1504    14.8084 H       
 329 H329           7.1359   -21.2779    13.1857 H       
 330 H330           5.3065   -22.8018    12.4932 H       
 331 H331           4.5862   -22.6743    14.1159 H       
 332 H332           4.3209   -20.2285    13.8061 H       
 333 H333           5.0412   -20.3559    12.1834 H       
 334 H334           3.2118   -21.8798    11.4909 H       
 335 H335           2.4914   -21.7524    13.1136 H       
 336 H336           2.2262   -19.3065    12.8038 H       
 337 H337           2.9465   -19.4340    11.1811 H       
 338 H338           1.1171   -20.9579    10.4886 H       
 339 H339           0.3967   -20.8304    12.1113 H       
 340 H340           0.1315   -18.3846    11.8015 H       
 341 H341           0.8518   -18.5120    10.1788 H       
 342 H342          -1.6980   -19.9085    11.1090 H       
 343 H343          -0.9776   -20.0359     9.4864 H       
@<TRIPOS>BOND
   1    1    2 2
   2    1    4 1
   3    1   10 am
   4    3  147 am
   5    3    4 1
   6    3  164 1
   7    4    5 1
   8    4  165 1
   9    5    6 1
  10    5    7 1
  11    5  166 1
  12    6  167 1
  13    6  168 1
  14    6  169 1
  15    7  170 1
  16    8    9 2
  17    8   11 1
  18    8   17 am
  19   10   11 1
  20   10  171 1
  21   11   12 1
  22   11  172 1
  23   12   13 1
  24   12   14 1
  25   12  173 1
  26   13  174 1
  27   13  175 1
  28   13  176 1
  29   14  177 1
  30   14  178 1
  31   14  179 1
  32   15   16 2
  33   15   18 1
  34   15   28 am
  35   17   18 1
  36   17  180 1
  37   18   19 1
  38   18  181 1
  39   19   20 1
  40   19  182 1
  41   19  183 1
  42   20   21 ar
  43   20   25 ar
  44   21   22 ar
  45   21  184 1
  46   22   23 ar
  47   22  185 1
  48   23   24 ar
  49   23  186 1
  50   24   25 ar
  51   24  187 1
  52   25  188 1
  53   26   27 2
  54   26   29 1
  55   26   39 am
  56   28   29 1
  57   28  189 1
  58   29   30 1
  59   29  190 1
  60   30   31 1
  61   30  191 1
  62   30  192 1
  63   31   32 1
  64   31  193 1
  65   31  194 1
  66   32   33 1
  67   32  195 1
  68   32  196 1
  69   33   34 1
  70   33  197 1
  71   34   35 2
  72   34   36 1
  73   35  198 1
  74   36  199 1
  75   36  200 1
  76   37   38 2
  77   37   40 1
  78   37   45 am
  79   39   40 1
  80   39  201 1
  81   40   41 1
  82   40  202 1
  83   41   42 1
  84   41  203 1
  85   41  204 1
  86   42  205 1
  87   43   44 2
  88   43   46 1
  89   43   51 am
  90   45   46 1
  91   45  206 1
  92   46   47 1
  93   46  207 1
  94   47   48 1
  95   47  208 1
  96   47  209 1
  97   48  210 1
  98   49   50 2
  99   49   52 1
 100   49   62 am
 101   51   52 1
 102   51  211 1
 103   52   53 1
 104   52  212 1
 105   53   54 1
 106   53  213 1
 107   53  214 1
 108   54   55 1
 109   54  215 1
 110   54  216 1
 111   55   56 1
 112   55  217 1
 113   55  218 1
 114   56   57 1
 115   56  219 1
 116   57   58 2
 117   57   59 1
 118   58  220 1
 119   59  221 1
 120   59  222 1
 121   60   61 2
 122   60   63 1
 123   60   71 am
 124   62   63 1
 125   62  223 1
 126   63   64 1
 127   63  224 1
 128   64   65 1
 129   64  225 1
 130   64  226 1
 131   65   66 1
 132   65  227 1
 133   65  228 1
 134   66   67 2
 135   66   68 1
 136   68  229 1
 137   69   70 2
 138   69   72 1
 139   69   80 am
 140   71   72 1
 141   71  230 1
 142   72   73 1
 143   72  231 1
 144   73   74 1
 145   73  232 1
 146   73  233 1
 147   74   75 1
 148   74  234 1
 149   74  235 1
 150   75   76 1
 151   75  236 1
 152   75  237 1
 153   76   77 1
 154   76  238 1
 155   76  239 1
 156   77  240 1
 157   77  241 1
 158   78   79 2
 159   78   81 1
 160   78   91 am
 161   80   81 1
 162   80  242 1
 163   81   82 1
 164   81  243 1
 165   82   83 1
 166   82  244 1
 167   82  245 1
 168   83   84 1
 169   83  246 1
 170   83  247 1
 171   84   85 1
 172   84  248 1
 173   84  249 1
 174   85   86 1
 175   85  250 1
 176   86   87 2
 177   86   88 1
 178   87  251 1
 179   88  252 1
 180   88  253 1
 181   89   90 2
 182   89   92 1
 183   89  102 am
 184   91   92 1
 185   91  254 1
 186   92   93 1
 187   92  255 1
 188   93   94 1
 189   93  256 1
 190   93  257 1
 191   94   95 1
 192   94  258 1
 193   94  259 1
 194   95   96 1
 195   95  260 1
 196   95  261 1
 197   96   97 1
 198   96  262 1
 199   97   98 2
 200   97   99 1
 201   98  263 1
 202   99  264 1
 203   99  265 1
 204  100  101 2
 205  100  103 1
 206  100  108 am
 207  102  103 1
 208  102  266 1
 209  103  104 1
 210  103  267 1
 211  104  105 1
 212  104  268 1
 213  104  269 1
 214  105  270 1
 215  106  107 2
 216  106  109 1
 217  106  113 am
 218  108  109 1
 219  108  271 1
 220  109  110 1
 221  109  272 1
 222  110  273 1
 223  110  274 1
 224  110  275 1
 225  111  112 2
 226  111  114 1
 227  111  121 am
 228  113  114 1
 229  113  276 1
 230  114  115 1
 231  114  277 1
 232  115  116 1
 233  115  278 1
 234  115  279 1
 235  116  117 2
 236  116  118 1
 237  118  280 1
 238  119  120 2
 239  119  122 1
 240  119  129 am
 241  121  122 1
 242  121  281 1
 243  122  123 1
 244  122  282 1
 245  123  124 1
 246  123  126 1
 247  123  283 1
 248  124  125 1
 249  124  284 1
 250  124  285 1
 251  125  286 1
 252  125  287 1
 253  125  288 1
 254  126  289 1
 255  126  290 1
 256  126  291 1
 257  127  128 2
 258  127  130 1
 259  127  140 am
 260  129  130 1
 261  129  292 1
 262  130  131 1
 263  130  293 1
 264  131  132 1
 265  131  294 1
 266  131  295 1
 267  132  133 ar
 268  132  137 ar
 269  133  134 ar
 270  133  296 1
 271  134  135 ar
 272  134  297 1
 273  135  136 ar
 274  135  298 1
 275  136  137 ar
 276  136  299 1
 277  137  300 1
 278  138  139 2
 279  138  141 1
 280  138  146 1
 281  140  141 1
 282  140  301 1
 283  141  142 1
 284  141  302 1
 285  142  143 1
 286  142  145 1
 287  142  303 1
 288  143  144 1
 289  143  304 1
 290  143  305 1
 291  144  306 1
 292  144  307 1
 293  144  308 1
 294  145  309 1
 295  145  310 1
 296  145  311 1
 297  146  312 1
 298  147  148 2
 299  147  163 1
 300  149  150 1
 301  149  313 1
 302  149  314 1
 303  149  315 1
 304  150  151 1
 305  150  316 1
 306  150  317 1
 307  151  152 1
 308  151  318 1
 309  151  319 1
 310  152  153 1
 311  152  320 1
 312  152  321 1
 313  153  154 1
 314  153  322 1
 315  153  323 1
 316  154  155 1
 317  154  324 1
 318  154  325 1
 319  155  156 1
 320  155  326 1
 321  155  327 1
 322  156  157 1
 323  156  328 1
 324  156  329 1
 325  157  158 1
 326  157  330 1
 327  157  331 1
 328  158  159 1
 329  158  332 1
 330  158  333 1
 331  159  160 1
 332  159  334 1
 333  159  335 1
 334  160  161 1
 335  160  336 1
 336  160  337 1
 337  161  162 1
 338  161  338 1
 339  161  339 1
 340  162  163 1
 341  162  340 1
 342  162  341 1
 343  163  342 1
 344  163  343 1

#	End of record

