#	Name: ASD01148130
#	Creating user name:	WinNT
#	Creation time:	15. 06. 2019 19:02

#	Modifying user name:	WinNT
#	Modification time:	15. 06. 2019 19:02

#	Program:	/corina/corina34_cracker 3.40 0067  02.08.2006

@<TRIPOS>MOLECULE
ASD01148130
  47   48    0    0    0
SMALL
NO_CHARGES


@<TRIPOS>ATOM
   1 C1            -0.0890     1.3457     0.2803 C.ar    
   2 C2            -0.0451    -0.0323     0.2514 C.ar    
   3 C3             1.0723     2.0827     0.0916 C.ar    
   4 C4             2.2809     1.4353    -0.1268 C.ar    
   5 C5             2.3309     0.0575    -0.1572 C.ar    
   6 C6             1.1668    -0.6851     0.0324 C.ar    
   7 C7            -1.3999     2.0524     0.5108 C.3     
   8 C8            -2.3850     1.6739    -0.5970 C.3     
   9 C9            -1.9726     1.6353     1.8669 C.3     
  10 C10            3.5392     2.2390    -0.3312 C.3     
  11 C11            4.5547     1.8818     0.7561 C.3     
  12 C12            4.1304     1.9200    -1.7058 C.3     
  13 O13            1.0259     3.4404     0.1201 O.3     
  14 C14            1.2174    -2.1675     0.0007 C.ar    
  15 C15            0.4449    -2.8740    -0.9188 C.ar    
  16 C16            0.4963    -4.2532    -0.9442 C.ar    
  17 C17            1.3125    -4.9337    -0.0591 C.ar    
  18 C18            2.0816    -4.2373     0.8561 C.ar    
  19 C19            2.0421    -2.8583     0.8868 C.ar    
  20 C20            1.3639    -6.4395    -0.0913 C.3     
  21 F21            0.5080    -6.9141    -1.0909 F       
  22 F22            2.6720    -6.8558    -0.3611 F       
  23 F23            0.9595    -6.9465     1.1483 F       
  24 C24            2.8805    -2.1011     1.8842 C.3     
  25 F25            3.4913    -3.0041     2.7610 F       
  26 F26            3.8633    -1.3704     1.2080 F       
  27 F27            2.0651    -1.2258     2.6096 F       
  28 H28           -0.9487    -0.6052     0.3986 H       
  29 H29            3.2713    -0.4456    -0.3274 H       
  30 H30           -1.2383     3.1303     0.5007 H       
  31 H31           -2.5466     0.5960    -0.5868 H       
  32 H32           -3.3332     2.1850    -0.4302 H       
  33 H33           -1.9770     1.9711    -1.5631 H       
  34 H34           -1.2707     1.9050     2.6561 H       
  35 H35           -2.9207     2.1464     2.0337 H       
  36 H36           -2.1342     0.5574     1.8771 H       
  37 H37            3.3047     3.3019    -0.2743 H       
  38 H38            5.4649     2.4631     0.6082 H       
  39 H39            4.1335     2.1091     1.7354 H       
  40 H40            4.7892     0.8189     0.6992 H       
  41 H41            3.4070     2.1744    -2.4804 H       
  42 H42            5.0406     2.5013    -1.8537 H       
  43 H43            4.3649     0.8570    -1.7627 H       
  44 H44            1.1623     3.8202     0.9989 H       
  45 H45           -0.1930    -2.3436    -1.6102 H       
  46 H46           -0.1023    -4.8019    -1.6563 H       
  47 H47            2.7172    -4.7738     1.5450 H       
@<TRIPOS>BOND
   1    1    2 ar
   2    1    3 ar
   3    1    7 1
   4    2    6 ar
   5    2   28 1
   6    3    4 ar
   7    3   13 1
   8    4    5 ar
   9    4   10 1
  10    5    6 ar
  11    5   29 1
  12    6   14 1
  13    7    8 1
  14    7    9 1
  15    7   30 1
  16    8   31 1
  17    8   32 1
  18    8   33 1
  19    9   34 1
  20    9   35 1
  21    9   36 1
  22   10   11 1
  23   10   12 1
  24   10   37 1
  25   11   38 1
  26   11   39 1
  27   11   40 1
  28   12   41 1
  29   12   42 1
  30   12   43 1
  31   13   44 1
  32   14   15 ar
  33   14   19 ar
  34   15   16 ar
  35   15   45 1
  36   16   17 ar
  37   16   46 1
  38   17   18 ar
  39   17   20 1
  40   18   19 ar
  41   18   47 1
  42   19   24 1
  43   20   21 1
  44   20   22 1
  45   20   23 1
  46   24   25 1
  47   24   26 1
  48   24   27 1

#	End of record

