#	Name: ASD01914806
#	Creating user name:	WinNT
#	Creation time:	15. 06. 2019 20:04

#	Modifying user name:	WinNT
#	Modification time:	15. 06. 2019 20:04

#	Program:	/corina/corina34_cracker 3.40 0067  02.08.2006

@<TRIPOS>MOLECULE
ASD01914806
  20   21    0    0    0
SMALL
NO_CHARGES


@<TRIPOS>ATOM
   1 N1            -0.0170     1.4019     0.0097 N.pl3   
   2 N2            -0.6368    -2.1029    -0.0032 N.pl3   
   3 N3             0.7635    -2.0779    -0.0164 N.2     
   4 C4             1.1539    -0.8204    -0.0134 C.2     
   5 C5             0.0021    -0.0041     0.0020 C.2     
   6 C6            -1.0819    -0.8175     0.0080 C.2     
   7 C7             2.9075     0.8180    -0.7094 C.ar    
   8 C8             2.5589    -0.3444    -0.0242 C.ar    
   9 C9             3.5542    -1.0541     0.6528 C.ar    
  10 C10            4.8500    -0.5680     0.6125 C.ar    
  11 C11            5.1153     0.5932    -0.0897 C.ar    
  12 N12            4.1546     1.2418    -0.7194 N.ar    
  13 H13            0.8164     1.8983     0.0045 H       
  14 H14           -0.8635     1.8754     0.0163 H       
  15 H15           -1.1924    -2.8980    -0.0057 H       
  16 H16           -2.1146    -0.5016     0.0189 H       
  17 H17            2.1491     1.3739    -1.2407 H       
  18 H18            3.3187    -1.9585     1.1940 H       
  19 H19            5.6449    -1.0900     1.1244 H       
  20 H20            6.1249     0.9754    -0.1229 H       
@<TRIPOS>BOND
   1    1    5 1
   2    1   13 1
   3    1   14 1
   4    2    3 1
   5    2    6 1
   6    2   15 1
   7    3    4 2
   8    4    5 1
   9    4    8 1
  10    5    6 2
  11    6   16 1
  12    7    8 ar
  13    7   12 ar
  14    7   17 1
  15    8    9 ar
  16    9   10 ar
  17    9   18 1
  18   10   11 ar
  19   10   19 1
  20   11   12 ar
  21   11   20 1

#	End of record

