#	Name: ASD09890001
#	Creating user name:	WinNT
#	Creation time:	15. 06. 2019 21:24

#	Modifying user name:	WinNT
#	Modification time:	15. 06. 2019 21:24

#	Program:	/corina/corina34_cracker 3.40 0067  02.08.2006

@<TRIPOS>MOLECULE
ASD09890001
  42   44    0    0    0
SMALL
NO_CHARGES


@<TRIPOS>ATOM
   1 C1            -0.0167     1.3770     0.0096 C.ar    
   2 C2             0.0021    -0.0041     0.0020 C.ar    
   3 C3             1.2080    -0.6804    -0.0127 C.ar    
   4 C4             2.3984     0.0232    -0.0203 C.ar    
   5 C5             2.3859     1.4043    -0.0132 C.ar    
   6 C6             1.1767     2.0860     0.0020 C.ar    
   7 N7             1.1609     3.4884     0.0088 N.pl3   
   8 C8             0.6805     4.3155    -0.9717 C.2     
   9 C9             1.6165     4.3155     0.9986 C.2     
  10 N10            1.4093     5.5476     0.5948 N.2     
  11 N11            0.8580     5.5411    -0.5660 N.2     
  12 S12            2.3430     3.8212     2.5258 S.3     
  13 C13            2.6673     5.4438     3.2593 C.3     
  14 C14            3.2012     5.2630     4.6817 C.3     
  15 C15            3.7051     6.1867     2.4156 C.3     
  16 C16            0.0623     3.8876    -2.2778 C.3     
  17 O17           -1.3485     3.7351    -2.1097 O.3     
  18 C18           -2.0618     3.3503    -3.2005 C.ar    
  19 C19           -3.4360     3.1830    -3.1086 C.ar    
  20 C20           -4.1588     2.7917    -4.2189 C.ar    
  21 C21           -3.5139     2.5668    -5.4211 C.ar    
  22 C22           -2.1444     2.7324    -5.5152 C.ar    
  23 C23           -1.4179     3.1295    -4.4093 C.ar    
  24 H24           -0.9589     1.9048     0.0170 H       
  25 H25           -0.9261    -0.5562     0.0079 H       
  26 H26            1.2203    -1.7604    -0.0179 H       
  27 H27            3.3388    -0.5078    -0.0314 H       
  28 H28            3.3159     1.9533    -0.0187 H       
  29 H29            1.7428     6.0206     3.2888 H       
  30 H30            4.1256     4.6863     4.6522 H       
  31 H31            3.3964     6.2402     5.1234 H       
  32 H32            2.4618     4.7338     5.2828 H       
  33 H33            4.6296     5.6100     2.3861 H       
  34 H34            3.3247     6.3156     1.4023 H       
  35 H35            3.9004     7.1639     2.8573 H       
  36 H36            0.2580     4.6443    -3.0376 H       
  37 H37            0.4957     2.9377    -2.5909 H       
  38 H38           -3.9401     3.3582    -2.1697 H       
  39 H39           -5.2285     2.6610    -4.1477 H       
  40 H40           -4.0807     2.2609    -6.2880 H       
  41 H41           -1.6429     2.5554    -6.4551 H       
  42 H42           -0.3482     3.2588    -4.4833 H       
@<TRIPOS>BOND
   1    1    2 ar
   2    1    6 ar
   3    1   24 1
   4    2    3 ar
   5    2   25 1
   6    3    4 ar
   7    3   26 1
   8    4    5 ar
   9    4   27 1
  10    5    6 ar
  11    5   28 1
  12    6    7 1
  13    7    8 1
  14    7    9 1
  15    8   16 1
  16    8   11 2
  17    9   10 2
  18    9   12 1
  19   10   11 1
  20   12   13 1
  21   13   14 1
  22   13   15 1
  23   13   29 1
  24   14   30 1
  25   14   31 1
  26   14   32 1
  27   15   33 1
  28   15   34 1
  29   15   35 1
  30   16   17 1
  31   16   36 1
  32   16   37 1
  33   17   18 1
  34   18   19 ar
  35   18   23 ar
  36   19   20 ar
  37   19   38 1
  38   20   21 ar
  39   20   39 1
  40   21   22 ar
  41   21   40 1
  42   22   23 ar
  43   22   41 1
  44   23   42 1

#	End of record

