#	Name: ASD05660009
#	Creating user name:	WinNT
#	Creation time:	15. 06. 2019 21:01

#	Modifying user name:	WinNT
#	Modification time:	15. 06. 2019 21:01

#	Program:	/corina/corina34_cracker 3.40 0067  02.08.2006

@<TRIPOS>MOLECULE
ASD05660009
  50   50    0    0    0
SMALL
NO_CHARGES


@<TRIPOS>ATOM
   1 C1            -0.0558     2.1893    -0.6077 C.3     
   2 C2             0.4706     0.7775    -0.5819 C.2     
   3 C3             0.8704     0.1982     0.6357 C.2     
   4 C4             0.7821     0.9113     1.7886 C.2     
   5 C5             1.0676     0.2896     3.0305 C.2     
   6 C6             0.3622    -0.7755     3.3717 C.2     
   7 C7            -0.6937    -1.2655     2.4145 C.3     
   8 C8             0.5539    -1.5243     4.6585 C.3     
   9 C9             1.9046    -1.1645     5.2808 C.3     
  10 C10            2.0318     0.3633     5.3196 C.3     
  11 C11            2.1578     0.8739     3.8809 C.3     
  12 C12            3.5184     0.4683     3.3107 C.3     
  13 C13            2.0430     2.3996     3.8750 C.3     
  14 C14            0.5594     0.0615    -1.7395 C.2     
  15 C15            0.1605     0.6394    -2.9542 C.2     
  16 C16            0.2493    -0.0775    -4.1131 C.2     
  17 C17           -0.1495     0.5004    -5.3276 C.2     
  18 C18           -0.6759     1.9122    -5.3533 C.3     
  19 C19           -0.0607    -0.2156    -6.4850 C.2     
  20 C20           -0.3040     0.4131    -7.7231 C.2     
  21 O21           -0.3562    -0.3218    -8.8549 O.3     
  22 O22           -0.4670     1.6187    -7.7720 O.2     
  23 H23            0.7713     2.8828    -0.7592 H       
  24 H24           -0.7725     2.2951    -1.4222 H       
  25 H25           -0.5472     2.4112     0.3397 H       
  26 H26            1.2477    -0.8136     0.6541 H       
  27 H27            0.4943     1.9519     1.7593 H       
  28 H28           -0.2353    -1.9169     1.6704 H       
  29 H29           -1.4534    -1.8206     2.9647 H       
  30 H30           -1.1559    -0.4134     1.9161 H       
  31 H31           -0.2449    -1.2616     5.3519 H       
  32 H32            0.5208    -2.5958     4.4614 H       
  33 H33            1.9583    -1.5622     6.2942 H       
  34 H34            2.7093    -1.5836     4.6768 H       
  35 H35            1.1465     0.7926     5.7886 H       
  36 H36            2.9209     0.6424     5.8851 H       
  37 H37            3.6114     0.8426     2.2912 H       
  38 H38            4.3115     0.8917     3.9270 H       
  39 H39            3.6017    -0.6185     3.3077 H       
  40 H40            1.1050     2.6952     4.3450 H       
  41 H41            2.8779     2.8289     4.4288 H       
  42 H42            2.0643     2.7616     2.8471 H       
  43 H43            0.9366    -0.9503    -1.7211 H       
  44 H44           -0.2168     1.6512    -2.9726 H       
  45 H45            0.6266    -1.0893    -4.0946 H       
  46 H46            0.1344     2.5976    -5.6019 H       
  47 H47           -1.4629     1.9929    -6.1031 H       
  48 H48           -1.0799     2.1673    -4.3736 H       
  49 H49            0.1959    -1.2641    -6.4530 H       
  50 H50           -0.5277     0.1966    -9.6529 H       
@<TRIPOS>BOND
   1    1    2 1
   2    1   23 1
   3    1   24 1
   4    1   25 1
   5    2    3 1
   6    2   14 2
   7    3    4 2
   8    3   26 1
   9    4    5 1
  10    4   27 1
  11    5    6 2
  12    5   11 1
  13    6    7 1
  14    6    8 1
  15    7   28 1
  16    7   29 1
  17    7   30 1
  18    8    9 1
  19    8   31 1
  20    8   32 1
  21    9   10 1
  22    9   33 1
  23    9   34 1
  24   10   11 1
  25   10   35 1
  26   10   36 1
  27   11   12 1
  28   11   13 1
  29   12   37 1
  30   12   38 1
  31   12   39 1
  32   13   40 1
  33   13   41 1
  34   13   42 1
  35   14   15 1
  36   14   43 1
  37   15   16 2
  38   15   44 1
  39   16   17 1
  40   16   45 1
  41   17   18 1
  42   17   19 2
  43   18   46 1
  44   18   47 1
  45   18   48 1
  46   19   20 1
  47   19   49 1
  48   20   21 1
  49   20   22 2
  50   21   50 1

#	End of record

