#	Name: ASD01028054
#	Creating user name:	WinNT
#	Creation time:	15. 06. 2019 18:56

#	Modifying user name:	WinNT
#	Modification time:	15. 06. 2019 18:56

#	Program:	/corina/corina34_cracker 3.40 0067  02.08.2006

@<TRIPOS>MOLECULE
ASD01028054
  86   91    0    0    0
SMALL
NO_CHARGES


@<TRIPOS>ATOM
   1 C1            -0.0187     1.5253     0.0104 C.3     
   2 C2             0.0021    -0.0041     0.0020 C.3     
   3 C3            -0.3642    -0.5326     1.3896 C.3     
   4 C4             1.8059     2.3653     1.3599 C.3     
   5 N5             1.3572     2.0407     0.0001 N.3     
   6 N6             3.9757     2.9214     2.3474 N.3     
   7 N7             3.6968    -0.9839     3.7268 N.pl3   
   8 C8             4.7317    -0.2012     4.2114 C.ar    
   9 C9             4.8978     1.0593     3.6449 C.ar    
  10 C10            3.9698     1.4682     2.5328 C.3     
  11 C11            5.5861    -0.6249     5.2237 C.ar    
  12 C12            6.5923     0.2206     5.6716 C.ar    
  13 C13            6.7407     1.4829     5.1084 C.ar    
  14 C14            5.8912     1.8964     4.0993 C.ar    
  15 O15           -0.5496    -1.9499     1.3358 O.3     
  16 C16            0.3013    -2.7077     2.0793 C.ar    
  17 C17            1.4072    -2.1173     2.6263 C.ar    
  18 C18            2.2914    -2.8864     3.3916 C.ar    
  19 C19            3.4559    -2.3046     3.9676 C.ar    
  20 N20            4.2432    -3.0835     4.6921 N.ar    
  21 O21            5.6446    -1.7958     5.9176 O.3     
  22 C22            6.7522    -1.7105     6.8197 C.3     
  23 O23            7.3003    -0.3992     6.6555 O.3     
  24 C24            0.0481    -4.0714     2.2798 C.ar    
  25 C25            0.9069    -4.8458     3.0319 C.ar    
  26 C26            2.0439    -4.2616     3.6040 C.ar    
  27 N27            2.9139    -4.9577     4.3530 N.ar    
  28 C28            3.9662    -4.3672     4.8695 C.ar    
  29 O29           -1.0560    -4.6375     1.7267 O.3     
  30 C30           -1.2598    -6.0314     1.9666 C.3     
  31 C31           -2.5435    -6.4865     1.2696 C.3     
  32 C32           -2.7617    -7.9789     1.5266 C.3     
  33 N33           -3.9943    -8.4159     0.8573 N.3     
  34 C34           -4.1147    -9.8792     0.8796 C.3     
  35 C35           -5.3290   -10.3051     0.0512 C.3     
  36 C36           -6.5899    -9.6616     0.6347 C.3     
  37 C37           -6.4190    -8.1400     0.6448 C.3     
  38 C38           -5.1731    -7.7769     1.4560 C.3     
  39 S39           -8.0236   -10.1038    -0.3850 S.o2    
  40 C40           -9.3456    -9.1284     0.3842 C.3     
  41 C41            3.0098     3.3076     1.3039 C.3     
  42 C42            3.6916     3.6155     3.6106 C.3     
  43 O43           -7.8096    -9.6166    -1.7026 O.2     
  44 O44           -8.3078   -11.4827    -0.1927 O.2     
  45 H45           -0.5473     1.8855    -0.8721 H       
  46 H46           -0.5304     1.8760     0.9067 H       
  47 H47           -0.7185    -0.3725    -0.7282 H       
  48 H48            0.9996    -0.3517    -0.2667 H       
  49 H49            0.4377    -0.2985     2.0898 H       
  50 H50           -1.2867    -0.0591     1.7257 H       
  51 H51            0.9936     2.8483     1.9031 H       
  52 H52            2.0885     1.4478     1.8761 H       
  53 H53            1.9853     1.3859    -0.4413 H       
  54 H54            3.0639    -0.5367     3.1434 H       
  55 H55            2.9578     1.1426     2.7736 H       
  56 H56            4.2879     0.9884     1.6071 H       
  57 H57            7.5209     2.1417     5.4601 H       
  58 H58            6.0072     2.8791     3.6665 H       
  59 H59            1.5968    -1.0658     2.4687 H       
  60 H60            6.4115    -1.8487     7.8458 H       
  61 H61            7.4994    -2.4633     6.5682 H       
  62 H62            0.7034    -5.8962     3.1792 H       
  63 H63            4.6419    -4.9585     5.4697 H       
  64 H64           -0.4136    -6.5952     1.5740 H       
  65 H65           -1.3469    -6.2065     3.0390 H       
  66 H66           -3.3897    -5.9227     1.6623 H       
  67 H67           -2.4564    -6.3114     0.1973 H       
  68 H68           -1.9156    -8.5427     1.1339 H       
  69 H69           -2.8489    -8.1540     2.5989 H       
  70 H70           -3.2134   -10.3243     0.4582 H       
  71 H71           -4.2400   -10.2177     1.9081 H       
  72 H72           -5.1981    -9.9790    -0.9806 H       
  73 H73           -5.4272   -11.3903     0.0808 H       
  74 H74           -6.7426   -10.0177     1.6535 H       
  75 H75           -6.3052    -7.7798    -0.3777 H       
  76 H76           -7.2959    -7.6783     1.0984 H       
  77 H77           -5.2934    -8.1252     2.4818 H       
  78 H78           -5.0405    -6.6950     1.4531 H       
  79 H79           -9.0935    -8.0693     0.3313 H       
  80 H80          -10.2824    -9.3058    -0.1441 H       
  81 H81           -9.4553    -9.4242     1.4276 H       
  82 H82            3.4837     3.2366     0.3248 H       
  83 H83            2.6783     4.3316     1.4755 H       
  84 H84            2.7171     3.3028     3.9858 H       
  85 H85            4.4597     3.3665     4.3427 H       
  86 H86            3.6870     4.6921     3.4405 H       
@<TRIPOS>BOND
   1    1    2 1
   2    1    5 1
   3    1   45 1
   4    1   46 1
   5    2    3 1
   6    2   47 1
   7    2   48 1
   8    3   15 1
   9    3   49 1
  10    3   50 1
  11    4    5 1
  12    4   41 1
  13    4   51 1
  14    4   52 1
  15    5   53 1
  16    6   41 1
  17    6   42 1
  18    6   10 1
  19    7    8 1
  20    7   19 1
  21    7   54 1
  22    8    9 ar
  23    8   11 ar
  24    9   10 1
  25    9   14 ar
  26   10   55 1
  27   10   56 1
  28   11   12 ar
  29   11   21 1
  30   12   13 ar
  31   12   23 1
  32   13   14 ar
  33   13   57 1
  34   14   58 1
  35   15   16 1
  36   16   17 ar
  37   16   24 ar
  38   17   18 ar
  39   17   59 1
  40   18   19 ar
  41   18   26 ar
  42   19   20 ar
  43   20   28 ar
  44   21   22 1
  45   22   23 1
  46   22   60 1
  47   22   61 1
  48   24   25 ar
  49   24   29 1
  50   25   26 ar
  51   25   62 1
  52   26   27 ar
  53   27   28 ar
  54   28   63 1
  55   29   30 1
  56   30   31 1
  57   30   64 1
  58   30   65 1
  59   31   32 1
  60   31   66 1
  61   31   67 1
  62   32   33 1
  63   32   68 1
  64   32   69 1
  65   33   34 1
  66   33   38 1
  67   34   35 1
  68   34   70 1
  69   34   71 1
  70   35   36 1
  71   35   72 1
  72   35   73 1
  73   36   37 1
  74   36   39 1
  75   36   74 1
  76   37   38 1
  77   37   75 1
  78   37   76 1
  79   38   77 1
  80   38   78 1
  81   39   40 1
  82   39   43 2
  83   39   44 2
  84   40   79 1
  85   40   80 1
  86   40   81 1
  87   41   82 1
  88   41   83 1
  89   42   84 1
  90   42   85 1
  91   42   86 1

#	End of record

