#	Name: ASD02440039
#	Creating user name:	WinNT
#	Creation time:	15. 06. 2019 20:21

#	Modifying user name:	WinNT
#	Modification time:	15. 06. 2019 20:21

#	Program:	/corina/corina34_cracker 3.40 0067  02.08.2006

@<TRIPOS>MOLECULE
ASD02440039
  67   70    0    0    0
SMALL
NO_CHARGES


@<TRIPOS>ATOM
   1 O1             2.8192     4.0376     0.6890 O.3     
   2 O2             1.8413     1.9951     1.2527 O.3     
   3 O3             3.2713     1.7074    -2.7064 O.3     
   4 O4             1.4732     3.9319    -2.7172 O.3     
   5 O5             4.9135     2.6374    -0.6391 O.3     
   6 O6            -0.4092     3.0664     3.8589 O.3     
   7 O7             3.1511     1.2613     3.5475 O.2     
   8 O8             3.3209     1.1024     6.1037 O.3     
   9 O9            -0.3081     2.8786     8.6045 O.3     
  10 O10           -2.6972     4.4011    -1.9243 O.3     
  11 C11            2.6933     2.2288    -1.5080 C.3     
  12 C12            2.4307     3.7285    -1.6761 C.3     
  13 C13            3.6607     2.0189    -0.3391 C.3     
  14 C14            1.8854     4.2936    -0.3620 C.3     
  15 C15            3.0679     2.6500     0.9234 C.3     
  16 C16            1.6770     5.8028    -0.5030 C.3     
  17 C17            1.3376     2.2162     2.4975 C.2     
  18 C18            0.1295     2.8274     2.6510 C.2     
  19 C19            2.0661     1.8118     3.6461 C.2     
  20 C20            1.4623     2.0815     4.9607 C.ar    
  21 C21            0.2096     2.7186     5.0066 C.ar    
  22 C22           -0.3760     2.9815     6.2354 C.ar    
  23 C23           -0.6146     3.2414     1.4472 C.ar    
  24 C24            2.1116     1.7169     6.1472 C.ar    
  25 C25           -1.7187     3.6628     6.2992 C.3     
  26 C26            0.2725     2.6179     7.4054 C.ar    
  27 C27            1.5116     1.9882     7.3629 C.ar    
  28 C28           -0.7923     2.3444     0.3898 C.ar    
  29 C29           -1.1494     4.5301     1.3623 C.ar    
  30 C30           -2.8103     2.6239     6.2845 C.2     
  31 C31           -1.4882     2.7355    -0.7328 C.ar    
  32 C32           -1.8438     4.9125     0.2358 C.ar    
  33 C33           -2.0127     4.0196    -0.8154 C.ar    
  34 C34           -3.6938     2.5885     7.2511 C.2     
  35 C35           -3.5588     3.5175     8.4299 C.3     
  36 C36           -4.8453     1.6186     7.1842 C.3     
  37 C37           -3.2095     5.7350    -1.9435 C.3     
  38 H38            1.7542     1.7150    -1.3026 H       
  39 H39            3.3613     4.2347    -1.9331 H       
  40 H40            3.8109     0.9514    -0.1777 H       
  41 H41            0.9343     3.8155    -0.1276 H       
  42 H42            3.7712     2.5412     1.7491 H       
  43 H43            2.6282     6.2805    -0.7379 H       
  44 H44            0.9647     5.9979    -1.3047 H       
  45 H45            1.2897     6.2051     0.4330 H       
  46 H46            3.4642     0.7605    -2.6704 H       
  47 H47            1.2589     4.8610    -2.8784 H       
  48 H48            5.5523     2.6040     0.0861 H       
  49 H49           -1.7861     4.2477     7.2165 H       
  50 H50           -1.8330     4.3220     5.4387 H       
  51 H51            2.0063     1.7100     8.2817 H       
  52 H52           -0.3844     1.3464     0.4529 H       
  53 H53           -1.0187     5.2248     2.1788 H       
  54 H54           -2.8642     1.9086     5.4771 H       
  55 H55           -1.6259     2.0432    -1.5501 H       
  56 H56           -2.2573     5.9080     0.1693 H       
  57 H57            4.0721     1.7113     6.1136 H       
  58 H58           -0.8767     2.1671     8.9292 H       
  59 H59           -4.0065     4.4810     8.1863 H       
  60 H60           -4.0688     3.0874     9.2918 H       
  61 H61           -2.5033     3.6562     8.6641 H       
  62 H62           -4.5580     0.6802     7.6586 H       
  63 H63           -5.7059     2.0399     7.7038 H       
  64 H64           -5.1049     1.4341     6.1417 H       
  65 H65           -3.9006     5.8707    -1.1116 H       
  66 H66           -2.3853     6.4422    -1.8503 H       
  67 H67           -3.7334     5.9095    -2.8833 H       
@<TRIPOS>BOND
   1    1   14 1
   2    1   15 1
   3    2   17 1
   4    2   15 1
   5    3   46 1
   6    3   11 1
   7    4   47 1
   8    4   12 1
   9    5   48 1
  10    5   13 1
  11    6   18 1
  12    6   21 1
  13    7   19 2
  14    8   24 1
  15    8   57 1
  16    9   26 1
  17    9   58 1
  18   10   33 1
  19   10   37 1
  20   11   12 1
  21   11   38 1
  22   11   13 1
  23   12   14 1
  24   12   39 1
  25   13   40 1
  26   13   15 1
  27   14   16 1
  28   14   41 1
  29   15   42 1
  30   16   43 1
  31   16   44 1
  32   16   45 1
  33   17   18 2
  34   17   19 1
  35   18   23 1
  36   19   20 1
  37   20   21 ar
  38   20   24 ar
  39   21   22 ar
  40   22   25 1
  41   22   26 ar
  42   23   28 ar
  43   23   29 ar
  44   24   27 ar
  45   25   30 1
  46   25   49 1
  47   25   50 1
  48   26   27 ar
  49   27   51 1
  50   28   31 ar
  51   28   52 1
  52   29   32 ar
  53   29   53 1
  54   30   34 2
  55   30   54 1
  56   31   33 ar
  57   31   55 1
  58   32   33 ar
  59   32   56 1
  60   34   35 1
  61   34   36 1
  62   35   59 1
  63   35   60 1
  64   35   61 1
  65   36   62 1
  66   36   63 1
  67   36   64 1
  68   37   65 1
  69   37   66 1
  70   37   67 1

#	End of record

