#	Name: ASD01881684
#	Creating user name:	WinNT
#	Creation time:	15. 06. 2019 19:43

#	Modifying user name:	WinNT
#	Modification time:	15. 06. 2019 19:43

#	Program:	/corina/corina34_cracker 3.40 0067  02.08.2006

@<TRIPOS>MOLECULE
ASD01881684
  66   69    0    0    0
SMALL
NO_CHARGES


@<TRIPOS>ATOM
   1 C1            -0.0162     1.3436     0.0094 C.2     
   2 N2             0.0021    -0.0041     0.0020 N.am    
   3 O3             1.0346     1.9695     0.0028 O.co2   
   4 O4            -1.0836     1.9406     0.0177 O.co2   
   5 N5             4.1670    -0.6393    -0.0453 N.3     
   6 C6             3.4268    -1.0354    -1.2501 C.3     
   7 C7             2.0674    -0.3325    -1.2694 C.3     
   8 C8             1.2806    -0.7192    -0.0140 C.3     
   9 C9             2.0946    -0.3399     1.2261 C.3     
  10 C10            3.4532    -1.0425     1.1731 C.3     
  11 C11            5.5305    -1.1856    -0.0617 C.3     
  12 C12            6.3458    -0.5561     1.0696 C.3     
  13 C13            7.7660    -1.1251     1.0525 C.3     
  14 O14            6.3980     0.8603     0.8882 O.3     
  15 O15            8.4926    -0.6264     2.1774 O.3     
  16 N16           13.7021    -2.1330     2.9488 N.pl3   
  17 N17           13.9046    -1.3933     4.1233 N.2     
  18 N18           12.8251    -0.7608     4.4223 N.2     
  19 C19           11.8641    -1.0180     3.5127 C.ar    
  20 C20           12.4040    -1.8964     2.5573 C.ar    
  21 C21           10.5356    -0.5919     3.3772 C.ar    
  22 C22            9.7816    -1.0384     2.3117 C.ar    
  23 C23           10.3307    -1.9085     1.3729 C.ar    
  24 C24           11.6238    -2.3334     1.4929 C.ar    
  25 C25           14.6814    -2.9847     2.2691 C.3     
  26 C26           14.5860    -4.4097     2.8179 C.3     
  27 C27           15.4499    -5.4825     2.1520 C.3     
  28 C28           15.8088    -4.9689     3.5478 C.3     
  29 Br29           9.7816     0.5891     4.6470 Br      
  30 C30           -1.2565    -0.7538     0.0100 C.3     
  31 C31           -2.0757    -0.3884    -1.2295 C.3     
  32 C32           -0.9566    -2.2540    -0.0009 C.3     
  33 C33           -2.0518    -0.4018     1.2688 C.3     
  34 H34            3.9953    -0.7509    -2.1355 H       
  35 H35            3.2773    -2.1151    -1.2460 H       
  36 H36            2.2162     0.7471    -1.2874 H       
  37 H37            1.5120    -0.6388    -2.1558 H       
  38 H38            1.0969    -1.7936    -0.0158 H       
  39 H39            2.2438     0.7396     1.2473 H       
  40 H40            1.5586    -0.6515     2.1226 H       
  41 H41            3.3036    -2.1222     1.1658 H       
  42 H42            4.0409    -0.7633     2.0476 H       
  43 H43            5.4907    -2.2660     0.0767 H       
  44 H44            6.0012    -0.9589    -1.0184 H       
  45 H45            5.8751    -0.7828     2.0263 H       
  46 H46            7.7221    -2.2132     1.1017 H       
  47 H47            8.2674    -0.8229     0.1331 H       
  48 H48            6.8055     1.1354     0.0556 H       
  49 H49            9.7292    -2.2507     0.5438 H       
  50 H50           12.0403    -3.0083     0.7598 H       
  51 H51           14.4750    -2.9929     1.1989 H       
  52 H52           15.6844    -2.5948     2.4427 H       
  53 H53           13.6026    -4.7089     3.1805 H       
  54 H54           15.0351    -6.4876     2.0768 H       
  55 H55           16.0863    -5.1731     1.3229 H       
  56 H56           16.6813    -4.3217     3.6370 H       
  57 H57           15.6301    -5.6362     4.3909 H       
  58 H58           -1.5091    -0.6391    -2.1263 H       
  59 H59           -3.0121    -0.9462    -1.2236 H       
  60 H60           -2.2894     0.6804    -1.2217 H       
  61 H61           -0.3730    -2.5143     0.8822 H       
  62 H62           -1.8931    -2.8118     0.0050 H       
  63 H63           -0.3900    -2.5048    -0.8977 H       
  64 H64           -2.2655     0.6670     1.2766 H       
  65 H65           -2.9883    -0.9596     1.2748 H       
  66 H66           -1.4683    -0.6621     2.1519 H       
@<TRIPOS>BOND
   1    1    2 am
   2    1    3 ar
   3    1    4 ar
   4    2    8 1
   5    2   30 1
   6    5    6 1
   7    5   10 1
   8    5   11 1
   9    6    7 1
  10    6   34 1
  11    6   35 1
  12    7    8 1
  13    7   36 1
  14    7   37 1
  15    8    9 1
  16    8   38 1
  17    9   10 1
  18    9   39 1
  19    9   40 1
  20   10   41 1
  21   10   42 1
  22   11   12 1
  23   11   43 1
  24   11   44 1
  25   12   13 1
  26   12   14 1
  27   12   45 1
  28   13   15 1
  29   13   46 1
  30   13   47 1
  31   14   48 1
  32   15   22 1
  33   16   17 1
  34   16   20 1
  35   16   25 1
  36   17   18 2
  37   18   19 1
  38   19   20 ar
  39   19   21 ar
  40   20   24 ar
  41   21   22 ar
  42   21   29 1
  43   22   23 ar
  44   23   24 ar
  45   23   49 1
  46   24   50 1
  47   25   26 1
  48   25   51 1
  49   25   52 1
  50   26   27 1
  51   26   28 1
  52   26   53 1
  53   27   28 1
  54   27   54 1
  55   27   55 1
  56   28   56 1
  57   28   57 1
  58   30   31 1
  59   30   33 1
  60   30   32 1
  61   31   58 1
  62   31   59 1
  63   31   60 1
  64   32   61 1
  65   32   62 1
  66   32   63 1
  67   33   64 1
  68   33   65 1
  69   33   66 1

#	End of record

