#	Name: ASD01030007
#	Creating user name:	WinNT
#	Creation time:	15. 06. 2019 18:58

#	Modifying user name:	WinNT
#	Modification time:	15. 06. 2019 18:58

#	Program:	/corina/corina34_cracker 3.40 0067  02.08.2006

@<TRIPOS>MOLECULE
ASD01030007
  43   42    0    0    0
SMALL
NO_CHARGES


@<TRIPOS>ATOM
   1 S1            -0.0172     1.4168     0.0098 S.o2    
   2 O2             0.0021    -0.0041     0.0020 O.2     
   3 O3             1.1617     2.2101     0.0028 O.2     
   4 O4            -0.8288     1.8423    -1.2054 O.3     
   5 O5            -0.8054     1.8291     1.2448 O.3     
   6 C6            -0.7927     3.2469    -1.4656 C.3     
   7 C7            -1.6380     3.5584    -2.7023 C.3     
   8 C8            -1.5993     5.0623    -2.9809 C.3     
   9 C9            -2.4446     5.3737    -4.2176 C.3     
  10 C10           -2.4060     6.8777    -4.4962 C.3     
  11 C11           -3.2513     7.1891    -5.7329 C.3     
  12 C12           -3.2126     8.6930    -6.0115 C.3     
  13 C13           -4.0579     9.0045    -7.2482 C.3     
  14 C14           -4.0193    10.5084    -7.5268 C.3     
  15 C15           -4.8646    10.8199    -8.7635 C.3     
  16 C16           -4.8260    12.3238    -9.0421 C.3     
  17 C17           -5.6713    12.6352   -10.2788 C.3     
  18 H18           -0.3741     1.6030     2.0803 H       
  19 H19           -1.1928     3.7859    -0.6069 H       
  20 H20            0.2372     3.5574    -1.6419 H       
  21 H21           -1.2379     3.0194    -3.5611 H       
  22 H22           -2.6678     3.2479    -2.5261 H       
  23 H23           -1.9994     5.6013    -2.1222 H       
  24 H24           -0.5695     5.3728    -3.1572 H       
  25 H25           -2.0445     4.8347    -5.0764 H       
  26 H26           -3.4745     5.0632    -4.0414 H       
  27 H27           -2.8061     7.4167    -3.6375 H       
  28 H28           -1.3761     7.1882    -4.6725 H       
  29 H29           -2.8512     6.6501    -6.5917 H       
  30 H30           -4.2812     6.8786    -5.5567 H       
  31 H31           -3.6128     9.2321    -5.1528 H       
  32 H32           -2.1828     9.0035    -6.1878 H       
  33 H33           -3.6578     8.4655    -8.1070 H       
  34 H34           -5.0878     8.6940    -7.0720 H       
  35 H35           -4.4194    11.0474    -6.6681 H       
  36 H36           -2.9894    10.8189    -7.7031 H       
  37 H37           -4.4645    10.2808    -9.6223 H       
  38 H38           -5.8945    10.5093    -8.5873 H       
  39 H39           -5.2261    12.8628    -8.1834 H       
  40 H40           -3.7961    12.6343    -9.2184 H       
  41 H41           -6.7011    12.3247   -10.1026 H       
  42 H42           -5.6437    13.7066   -10.4773 H       
  43 H43           -5.2712    12.0962   -11.1376 H       
@<TRIPOS>BOND
   1    1    2 2
   2    1    3 2
   3    1    4 1
   4    1    5 1
   5    4    6 1
   6    5   18 1
   7    6    7 1
   8    6   19 1
   9    6   20 1
  10    7    8 1
  11    7   21 1
  12    7   22 1
  13    8    9 1
  14    8   23 1
  15    8   24 1
  16    9   10 1
  17    9   25 1
  18    9   26 1
  19   10   11 1
  20   10   27 1
  21   10   28 1
  22   11   12 1
  23   11   29 1
  24   11   30 1
  25   12   13 1
  26   12   31 1
  27   12   32 1
  28   13   14 1
  29   13   33 1
  30   13   34 1
  31   14   15 1
  32   14   35 1
  33   14   36 1
  34   15   16 1
  35   15   37 1
  36   15   38 1
  37   16   17 1
  38   16   39 1
  39   16   40 1
  40   17   41 1
  41   17   42 1
  42   17   43 1

#	End of record

