#	Name: ASD02198616
#	Creating user name:	WinNT
#	Creation time:	15. 06. 2019 20:19

#	Modifying user name:	WinNT
#	Modification time:	15. 06. 2019 20:19

#	Program:	/corina/corina34_cracker 3.40 0067  02.08.2006

@<TRIPOS>MOLECULE
ASD02198616
  48   51    0    0    0
SMALL
NO_CHARGES


@<TRIPOS>ATOM
   1 C1             1.1497    -0.3273     0.3268 C.2     
   2 C2             0.3361     0.2718    -0.5785 C.2     
   3 N3             0.7543     1.3498    -1.2798 N.pl3   
   4 N4             1.9180     1.8699    -1.1440 N.2     
   5 C5             2.8049     1.3876    -0.3010 C.2     
   6 C6             2.4453     0.2133     0.5103 C.2     
   7 C7            -0.1274     1.9262    -2.2002 C.ar    
   8 C8             0.2065     3.1173    -2.8320 C.ar    
   9 C9            -0.6664     3.6837    -3.7402 C.ar    
  10 C10           -1.8715     3.0664    -4.0208 C.ar    
  11 C11           -2.2070     1.8802    -3.3935 C.ar    
  12 C12           -1.3365     1.3055    -2.4888 C.ar    
  13 C13            4.1375     2.0127    -0.1711 C.2     
  14 N14            4.4089     3.3493    -0.1739 N.pl3   
  15 N15            5.7929     3.5047    -0.0265 N.2     
  16 C16            6.3419     2.3200     0.0623 C.2     
  17 C17            5.3380     1.3552    -0.0183 C.2     
  18 C18            3.4282     4.4293    -0.3081 C.3     
  19 C19            2.9708     4.8652     1.0600 C.ar    
  20 O20            3.2315    -0.2742     1.3086 O.2     
  21 C21            3.6111     5.9093     1.7016 C.ar    
  22 C22           -0.3053     4.9763    -4.4257 C.3     
  23 F23            0.3811     4.6986    -5.6127 F       
  24 F24           -1.4720     5.6909    -4.7179 F       
  25 F25            0.5102     5.7391    -3.5830 F       
  26 C26            3.1937     6.3108     2.9558 C.ar    
  27 C27            2.1311     5.6655     3.5715 C.ar    
  28 C28            1.4903     4.6182     2.9256 C.ar    
  29 C29            1.9079     4.2242     1.6691 C.ar    
  30 O30            1.7189     6.0584     4.8055 O.3     
  31 C31            0.6188     5.3487     5.3784 C.3     
  32 H32            0.8184    -1.1857     0.8922 H       
  33 H33           -0.6581    -0.1174    -0.7415 H       
  34 H34            1.1474     3.6002    -2.6130 H       
  35 H35           -2.5524     3.5116    -4.7311 H       
  36 H36           -3.1492     1.4008    -3.6147 H       
  37 H37           -1.5991     0.3793    -1.9993 H       
  38 H38            7.3969     2.1224     0.1824 H       
  39 H39            5.4776     0.2851     0.0243 H       
  40 H40            3.8856     5.2733    -0.8243 H       
  41 H41            2.5720     4.0735    -0.8812 H       
  42 H42            4.4385     6.4111     1.2221 H       
  43 H43            3.6944     7.1262     3.4567 H       
  44 H44            0.6628     4.1143     3.4029 H       
  45 H45            1.4091     3.4092     1.1658 H       
  46 H46           -0.2537     5.4483     4.7327 H       
  47 H47            0.8787     4.2949     5.4782 H       
  48 H48            0.3924     5.7617     6.3614 H       
@<TRIPOS>BOND
   1    1    2 2
   2    1    6 1
   3    1   32 1
   4    2    3 1
   5    2   33 1
   6    3    4 1
   7    3    7 1
   8    4    5 2
   9    5    6 1
  10    5   13 1
  11    6   20 2
  12    7    8 ar
  13    7   12 ar
  14    8    9 ar
  15    8   34 1
  16    9   10 ar
  17    9   22 1
  18   10   11 ar
  19   10   35 1
  20   11   12 ar
  21   11   36 1
  22   12   37 1
  23   13   14 1
  24   13   17 2
  25   14   15 1
  26   14   18 1
  27   15   16 2
  28   16   17 1
  29   16   38 1
  30   17   39 1
  31   18   19 1
  32   18   40 1
  33   18   41 1
  34   19   21 ar
  35   19   29 ar
  36   21   26 ar
  37   21   42 1
  38   22   23 1
  39   22   24 1
  40   22   25 1
  41   26   27 ar
  42   26   43 1
  43   27   28 ar
  44   27   30 1
  45   28   29 ar
  46   28   44 1
  47   29   45 1
  48   30   31 1
  49   31   46 1
  50   31   47 1
  51   31   48 1

#	End of record

