#	Name: ASD00431105
#	Creating user name:	WinNT
#	Creation time:	15. 06. 2019 18:35

#	Modifying user name:	WinNT
#	Modification time:	15. 06. 2019 18:35

#	Program:	/corina/corina34_cracker 3.40 0067  02.08.2006

@<TRIPOS>MOLECULE
ASD00431105
  23   24    0    0    0
SMALL
NO_CHARGES


@<TRIPOS>ATOM
   1 S1            -1.8486     1.4505     1.3531 S.3     
   2 C2            -1.3544    -0.1779     1.1877 C.2     
   3 N3            -1.2608    -0.7356     2.3530 N.2     
   4 C4            -1.5489     0.0154     3.4002 C.2     
   5 C5            -1.9026     1.2671     3.1045 C.2     
   6 O6            -1.0983    -0.7954     0.0087 O.3     
   7 C7            -0.8177    -2.1255     0.0325 C.ar    
   8 C8            -1.8396    -3.0469     0.2097 C.ar    
   9 C9            -1.5545    -4.3981     0.2339 C.ar    
  10 C10           -0.2464    -4.8339     0.0817 C.ar    
  11 C11            0.7753    -3.9127    -0.0955 C.ar    
  12 C12            0.4896    -2.5617    -0.1259 C.ar    
  13 O13            0.0342    -6.1641     0.1064 O.3     
  14 C14            1.4028    -6.5415    -0.0565 C.3     
  15 H15           -1.5023    -0.3540     4.4140 H       
  16 H16           -2.1745     2.0341     3.8145 H       
  17 H17           -2.8580    -2.7077     0.3289 H       
  18 H18           -2.3500    -5.1155     0.3718 H       
  19 H19            1.7938    -4.2520    -0.2140 H       
  20 H20            1.2846    -1.8447    -0.2687 H       
  21 H21            1.7663    -6.1834    -1.0197 H       
  22 H22            1.9988    -6.1015     0.7431 H       
  23 H23            1.4874    -7.6275    -0.0172 H       
@<TRIPOS>BOND
   1    1    2 1
   2    1    5 1
   3    2    3 2
   4    2    6 1
   5    3    4 1
   6    4    5 2
   7    4   15 1
   8    5   16 1
   9    6    7 1
  10    7    8 ar
  11    7   12 ar
  12    8    9 ar
  13    8   17 1
  14    9   10 ar
  15    9   18 1
  16   10   11 ar
  17   10   13 1
  18   11   12 ar
  19   11   19 1
  20   12   20 1
  21   13   14 1
  22   14   21 1
  23   14   22 1
  24   14   23 1

#	End of record

