#	Name: ASD04640008
#	Creating user name:	WinNT
#	Creation time:	15. 06. 2019 20:52

#	Modifying user name:	WinNT
#	Modification time:	15. 06. 2019 20:52

#	Program:	/corina/corina34_cracker 3.40 0067  02.08.2006

@<TRIPOS>MOLECULE
ASD04640008
  64   68    0    0    0
SMALL
NO_CHARGES


@<TRIPOS>ATOM
   1 C1             0.1199     1.4735     0.8853 C.ar    
   2 C2             0.1318    -0.0032     0.8499 C.2     
   3 O3            -0.8952    -0.6241     1.0440 O.2     
   4 N4             1.2811    -0.6621     0.6024 N.am    
   5 C5             1.2929    -2.1266     0.5673 C.3     
   6 C6             2.7108    -2.6183     0.2691 C.3     
   7 C7             2.7231    -4.1478     0.2324 C.3     
   8 C8             4.1106    -4.6367    -0.1878 C.3     
   9 N9             4.1305    -6.1055    -0.1959 N.3     
  10 C10            5.4222    -6.6120    -0.6802 C.3     
  11 C11            3.0230    -6.6428    -0.9986 C.3     
  12 C12            3.0317    -8.1711    -0.9167 C.3     
  13 N13            4.3234    -8.6776    -1.4010 N.3     
  14 C14            5.4310    -8.1403    -0.5984 C.3     
  15 C15            4.3424   -10.0750    -1.4087 C.ar    
  16 C16            4.1544   -10.7801    -0.2269 C.ar    
  17 C17            4.5436   -10.7621    -2.5997 C.ar    
  18 C18            4.5612   -12.1452    -2.6032 C.ar    
  19 C19            4.3787   -12.8432    -1.4223 C.ar    
  20 C20            4.1731   -12.1611    -0.2371 C.ar    
  21 Cl21           4.7719    -9.8860    -4.0809 Cl      
  22 Cl22           4.8118   -13.0058    -4.0898 Cl      
  23 C23            1.2989     2.1896     0.6626 C.ar    
  24 C24            1.2880     3.5646     0.6961 C.ar    
  25 C25            0.0975     4.2517     0.9531 C.ar    
  26 C26           -1.0770     3.5342     1.1744 C.ar    
  27 C27           -1.0715     2.1591     1.1360 C.ar    
  28 O28            2.4112    -4.6579     1.5303 O.3     
  29 C29           -0.1877     5.7044     1.0445 C.ar    
  30 C30           -1.5390     5.8960     1.3225 C.ar    
  31 C31           -2.1807     4.5338     1.4210 C.3     
  32 C32            0.6460     6.8155     0.9014 C.ar    
  33 C33            0.1280     8.0870     1.0357 C.ar    
  34 C34           -1.2153     8.2668     1.3118 C.ar    
  35 C35           -2.0474     7.1702     1.4558 C.ar    
  36 H36            2.1006    -0.1666     0.4475 H       
  37 H37            0.9689    -2.5158     1.5325 H       
  38 H38            0.6156    -2.4768    -0.2117 H       
  39 H39            3.0348    -2.2290    -0.6961 H       
  40 H40            3.3881    -2.2680     1.0481 H       
  41 H41            1.9812    -4.5000    -0.4843 H       
  42 H42            4.3399    -4.2647    -1.1864 H       
  43 H43            4.8551    -4.2671     0.5174 H       
  44 H44            5.5694    -6.3024    -1.7149 H       
  45 H45            6.2252    -6.2102    -0.0623 H       
  46 H46            2.0768    -6.2634    -0.6127 H       
  47 H47            3.1429    -6.3336    -2.0369 H       
  48 H48            2.8845    -8.4807     0.1180 H       
  49 H49            2.2287    -8.5730    -1.5346 H       
  50 H50            6.3772    -8.5198    -0.9842 H       
  51 H51            5.3111    -8.4496     0.4399 H       
  52 H52            3.9941   -10.2488     0.6996 H       
  53 H53            4.3928   -13.9231    -1.4270 H       
  54 H54            4.0314   -12.7091     0.6827 H       
  55 H55            2.2204     1.6625     0.4641 H       
  56 H56            2.2012     4.1149     0.5238 H       
  57 H57           -1.9852     1.6098     1.3085 H       
  58 H58            3.0312    -4.3840     2.2200 H       
  59 H59           -2.9577     4.4294     0.6637 H       
  60 H60           -2.6031     4.3889     2.4153 H       
  61 H61            1.6955     6.6795     0.6862 H       
  62 H62            0.7740     8.9454     0.9251 H       
  63 H63           -1.6154     9.2645     1.4159 H       
  64 H64           -3.0960     7.3131     1.6713 H       
@<TRIPOS>BOND
   1    1    2 1
   2    1   23 ar
   3    1   27 ar
   4    2    3 2
   5    2    4 am
   6    4    5 1
   7    4   36 1
   8    5    6 1
   9    5   37 1
  10    5   38 1
  11    6    7 1
  12    6   39 1
  13    6   40 1
  14    7    8 1
  15    7   28 1
  16    7   41 1
  17    8    9 1
  18    8   42 1
  19    8   43 1
  20    9   10 1
  21    9   11 1
  22   10   14 1
  23   10   44 1
  24   10   45 1
  25   11   12 1
  26   11   46 1
  27   11   47 1
  28   12   13 1
  29   12   48 1
  30   12   49 1
  31   13   14 1
  32   13   15 1
  33   14   50 1
  34   14   51 1
  35   15   16 ar
  36   15   17 ar
  37   16   20 ar
  38   16   52 1
  39   17   18 ar
  40   17   21 1
  41   18   19 ar
  42   18   22 1
  43   19   20 ar
  44   19   53 1
  45   20   54 1
  46   23   24 ar
  47   23   55 1
  48   24   25 ar
  49   24   56 1
  50   25   26 ar
  51   25   29 1
  52   26   27 ar
  53   26   31 1
  54   27   57 1
  55   28   58 1
  56   29   30 ar
  57   29   32 ar
  58   30   31 1
  59   30   35 ar
  60   31   59 1
  61   31   60 1
  62   32   33 ar
  63   32   61 1
  64   33   34 ar
  65   33   62 1
  66   34   35 ar
  67   34   63 1
  68   35   64 1

#	End of record

