#	Name: ASD01028772
#	Creating user name:	WinNT
#	Creation time:	15. 06. 2019 18:58

#	Modifying user name:	WinNT
#	Modification time:	15. 06. 2019 18:58

#	Program:	/corina/corina34_cracker 3.40 0067  02.08.2006

@<TRIPOS>MOLECULE
ASD01028772
  15   15    0    0    0
SMALL
NO_CHARGES


@<TRIPOS>ATOM
   1 C1            -0.0173     1.4248     0.0099 C.3     
   2 O2             0.0021    -0.0041     0.0020 O.3     
   3 N3             3.3721     2.6817    -0.6326 N.2     
   4 N4             2.1267     2.2255    -1.0944 N.pl3   
   5 C5             1.3965     1.9464    -0.0008 C.2     
   6 N6             2.1271     2.2074     1.0526 N.2     
   7 C7             3.3242     2.6529     0.6734 C.2     
   8 C8             1.7066     2.0829    -2.4907 C.3     
   9 H9            -0.5445     1.7859    -0.8732 H       
  10 H10           -0.5275     1.7763     0.9067 H       
  11 H11           -0.8759    -0.4094     0.0082 H       
  12 H12            4.1251     2.9431     1.3373 H       
  13 H13            1.9583     1.0835    -2.8456 H       
  14 H14            0.6295     2.2336    -2.5632 H       
  15 H15            2.2193     2.8255    -3.1020 H       
@<TRIPOS>BOND
   1    1    2 1
   2    1    5 1
   3    1    9 1
   4    1   10 1
   5    2   11 1
   6    3    4 1
   7    3    7 2
   8    4    5 1
   9    4    8 1
  10    5    6 2
  11    6    7 1
  12    7   12 1
  13    8   13 1
  14    8   14 1
  15    8   15 1

#	End of record

