#	Name: ASD01901453
#	Creating user name:	WinNT
#	Creation time:	15. 06. 2019 19:53

#	Modifying user name:	WinNT
#	Modification time:	15. 06. 2019 19:53

#	Program:	/corina/corina34_cracker 3.40 0067  02.08.2006

@<TRIPOS>MOLECULE
ASD01901453
  37   40    0    0    0
SMALL
NO_CHARGES


@<TRIPOS>ATOM
   1 C1            -0.0169     1.3914     0.0097 C.ar    
   2 C2             1.1721     2.0956     0.0021 C.ar    
   3 C3             2.3801     1.4178    -0.0131 C.ar    
   4 C4             2.4023     0.0327    -0.0212 C.ar    
   5 C5             1.2200    -0.6794    -0.0142 C.ar    
   6 C6             0.0021    -0.0041     0.0020 C.ar    
   7 C7            -1.2716    -0.7659     0.0106 C.2     
   8 N8            -3.1805    -1.5352    -1.1465 N.2     
   9 C9            -2.0564    -0.8617    -1.1592 C.2     
  10 C10           -1.6985    -1.3894     1.1495 C.2     
  11 N11           -2.8735    -2.0810     1.1228 N.pl3   
  12 C12           -3.6100    -2.1457    -0.0319 C.2     
  13 C13           -3.5511    -2.7935     2.0752 C.2     
  14 C14           -4.6706    -3.2714     1.4913 C.2     
  15 N15           -4.6920    -2.8699     0.2170 N.2     
  16 C16           -5.7213    -4.1162     2.1647 C.3     
  17 O17           -5.3525    -4.3385     3.5273 O.3     
  18 C18           -6.1993    -5.0879     4.2813 C.ar    
  19 C19           -5.9139    -5.3446     5.6187 C.ar    
  20 C20           -7.3633    -5.6030     3.7301 C.ar    
  21 N21           -8.1879    -6.3301     4.4578 N.ar    
  22 C22           -7.9445    -6.5959     5.7261 C.ar    
  23 C23           -6.8073    -6.1131     6.3468 C.ar    
  24 F24            3.5404     2.1098    -0.0204 F       
  25 F25           -1.1950     2.0524     0.0301 F       
  26 H26            1.1596     3.1755     0.0077 H       
  27 H27            3.3467    -0.4910    -0.0333 H       
  28 H28            1.2393    -1.7593    -0.0212 H       
  29 H29           -1.7293    -0.3778    -2.0676 H       
  30 H30           -1.1143    -1.3355     2.0562 H       
  31 H31           -3.2473    -2.9450     3.1004 H       
  32 H32           -6.6809    -3.6006     2.1274 H       
  33 H33           -5.8029    -5.0733     1.6496 H       
  34 H34           -5.0175    -4.9545     6.0777 H       
  35 H35           -7.5967    -5.4060     2.6942 H       
  36 H36           -8.6450    -7.1951     6.2887 H       
  37 H37           -6.6176    -6.3329     7.3870 H       
@<TRIPOS>BOND
   1    1    6 ar
   2    1    2 ar
   3    1   25 1
   4    2    3 ar
   5    2   26 1
   6    3    4 ar
   7    3   24 1
   8    4    5 ar
   9    4   27 1
  10    5    6 ar
  11    5   28 1
  12    6    7 1
  13    7   10 2
  14    7    9 1
  15    8    9 2
  16    8   12 1
  17    9   29 1
  18   10   11 1
  19   10   30 1
  20   11   13 1
  21   11   12 1
  22   12   15 2
  23   13   14 2
  24   13   31 1
  25   14   15 1
  26   14   16 1
  27   16   17 1
  28   16   32 1
  29   16   33 1
  30   17   18 1
  31   18   20 ar
  32   18   19 ar
  33   19   23 ar
  34   19   34 1
  35   20   21 ar
  36   20   35 1
  37   21   22 ar
  38   22   23 ar
  39   22   36 1
  40   23   37 1

#	End of record

