#	Name: ASD02508079
#	Creating user name:	WinNT
#	Creation time:	15. 06. 2019 20:23

#	Modifying user name:	WinNT
#	Modification time:	15. 06. 2019 20:23

#	Program:	/corina/corina34_cracker 3.40 0067  02.08.2006

@<TRIPOS>MOLECULE
ASD02508079
  37   39    0    0    0
SMALL
NO_CHARGES


@<TRIPOS>ATOM
   1 C1             3.8141    -0.8885    -4.1343 C.ar    
   2 C2             4.7687    -1.5016    -3.3379 C.ar    
   3 C3             2.7644    -0.1800    -3.5502 C.ar    
   4 C4             2.6778    -0.0906    -2.1701 C.ar    
   5 C5             3.6350    -0.7059    -1.3767 C.ar    
   6 C6             4.6801    -1.4106    -1.9631 C.ar    
   7 N7             3.6362    -0.7964    -5.5170 N.am    
   8 C8             2.5232    -0.0677    -5.7336 C.2     
   9 O9             1.9967     0.3054    -4.5567 O.3     
  10 N10            3.5488    -0.6165     0.0167 N.am    
  11 S11            3.7393    -1.9733     0.9468 S.o2    
  12 C12            2.4300    -3.0774     0.5329 C.ar    
  13 C13            1.1171    -2.7395     0.8286 C.ar    
  14 O14            2.0688     0.2121    -6.8263 O.2     
  15 O15            4.9407    -2.5938     0.5100 O.2     
  16 C16            2.7092    -4.2775    -0.0913 C.ar    
  17 C17            1.6820    -5.1443    -0.4168 C.ar    
  18 C18            0.3736    -4.8123    -0.1185 C.ar    
  19 C19            0.0886    -3.6109     0.5015 C.ar    
  20 O20            3.5160    -1.5724     2.2917 O.2     
  21 O21            0.8394    -1.5571     1.4381 O.3     
  22 C22           -0.5200    -1.3234     1.8118 C.3     
  23 C23            1.9895    -6.4528    -1.0983 C.3     
  24 H24            5.5806    -2.0500    -3.7923 H       
  25 H25            1.8670     0.4572    -1.7131 H       
  26 H26            5.4235    -1.8884    -1.3422 H       
  27 H27            4.2088    -1.1853    -6.1965 H       
  28 H28            3.3774     0.2403     0.4381 H       
  29 H29            3.7305    -4.5390    -0.3257 H       
  30 H30           -0.4269    -5.4908    -0.3741 H       
  31 H31           -0.9337    -3.3521     0.7344 H       
  32 H32           -0.6158    -0.3191     2.2245 H       
  33 H33           -1.1595    -1.4181     0.9343 H       
  34 H34           -0.8214    -2.0547     2.5618 H       
  35 H35            2.1574    -7.2236    -0.3460 H       
  36 H36            1.1492    -6.7393    -1.7307 H       
  37 H37            2.8842    -6.3420    -1.7109 H       
@<TRIPOS>BOND
   1    1    2 ar
   2    1    3 ar
   3    1    7 1
   4    2    6 ar
   5    2   24 1
   6    3    4 ar
   7    3    9 1
   8    4    5 ar
   9    4   25 1
  10    5    6 ar
  11    5   10 1
  12    6   26 1
  13    7    8 am
  14    7   27 1
  15    8    9 1
  16    8   14 2
  17   10   11 am
  18   10   28 1
  19   11   12 1
  20   11   15 2
  21   11   20 2
  22   12   13 ar
  23   12   16 ar
  24   13   21 1
  25   13   19 ar
  26   16   17 ar
  27   16   29 1
  28   17   18 ar
  29   17   23 1
  30   18   19 ar
  31   18   30 1
  32   19   31 1
  33   21   22 1
  34   22   32 1
  35   22   33 1
  36   22   34 1
  37   23   35 1
  38   23   36 1
  39   23   37 1

#	End of record

