#	Name: ASD01940330
#	Creating user name:	WinNT
#	Creation time:	15. 06. 2019 20:12

#	Modifying user name:	WinNT
#	Modification time:	15. 06. 2019 20:12

#	Program:	/corina/corina34_cracker 3.40 0067  02.08.2006

@<TRIPOS>MOLECULE
ASD01940330
  58   60    0    0    0
SMALL
NO_CHARGES


@<TRIPOS>ATOM
   1 C1            -0.7970     1.0980     1.6302 C.3     
   2 C2             0.3872     1.6724     2.4104 C.3     
   3 C3            -0.9348     2.4404     2.3513 C.3     
   4 S4            -0.6996     1.1263    -0.1810 S.o2    
   5 O5             0.4504     0.4224    -0.6295 O.2     
   6 O6            -1.9773     0.8822    -0.7529 O.2     
   7 N7            -0.3811     2.7082    -0.5530 N.am    
   8 C8            -1.5234    -0.1058     2.2335 C.3     
   9 C9            -2.6964    -0.4976     1.3328 C.3     
  10 C10           -3.4060    -1.7186     1.9217 C.3     
  11 O11           -4.4275    -2.1553     1.0229 O.3     
  12 O12           -3.6163     0.5926     1.2475 O.3     
  13 C13            0.8179     3.3022    -0.1264 C.ar    
  14 C14            0.7872     4.4690     0.6332 C.ar    
  15 C15            1.9757     5.0527     1.0533 C.ar    
  16 C16            3.1889     4.4745     0.7167 C.ar    
  17 C17            3.2209     3.3148    -0.0388 C.ar    
  18 C18            2.0383     2.7236    -0.4566 C.ar    
  19 O19            2.0722     1.5806    -1.1939 O.3     
  20 C20            3.3535     0.9862    -1.4108 C.3     
  21 C21            3.2068    -0.2145    -2.3476 C.3     
  22 O22            2.8405     0.2408    -3.6517 O.3     
  23 C23            2.6770    -0.8076    -4.6088 C.3     
  24 N24           -0.4407     5.0537     0.9728 N.pl3   
  25 C25           -0.4936     6.0496     1.9530 C.ar    
  26 C26           -0.1376     5.7558     3.2657 C.ar    
  27 C27           -0.1914     6.7432     4.2315 C.ar    
  28 C28           -0.5985     8.0219     3.8933 C.ar    
  29 C29           -0.9527     8.3160     2.5893 C.ar    
  30 C30           -0.8959     7.3352     1.6175 C.ar    
  31 I31           -0.6792     9.5153     5.3603 I       
  32 F32            0.2594     4.5074     3.5958 F       
  33 F33            4.3435     5.0440     1.1264 F       
  34 F34            1.9486     6.1849     1.7899 F       
  35 H35            0.6488     1.1926     3.3535 H       
  36 H36            1.2248     2.0672     1.8354 H       
  37 H37           -0.9669     3.3405     1.7374 H       
  38 H38           -1.5429     2.4658     3.2555 H       
  39 H39           -1.0227     3.2246    -1.0655 H       
  40 H40           -0.8317    -0.9443     2.3146 H       
  41 H41           -1.8968     0.1541     3.2240 H       
  42 H42           -2.3251    -0.7385     0.3368 H       
  43 H43           -2.6843    -2.5220     2.0695 H       
  44 H44           -3.8539    -1.4519     2.8789 H       
  45 H45           -4.9199    -2.9278     1.3326 H       
  46 H46           -3.9876     0.8615     2.0989 H       
  47 H47            4.1686     2.8672    -0.2994 H       
  48 H48            4.0224     1.7193    -1.8616 H       
  49 H49            3.7665     0.6552    -0.4579 H       
  50 H50            4.1544    -0.7503    -2.4027 H       
  51 H51            2.4340    -0.8814    -1.9653 H       
  52 H52            3.6137    -1.3557    -4.7108 H       
  53 H53            1.8933    -1.4869    -4.2733 H       
  54 H54            2.3994    -0.3801    -5.5722 H       
  55 H55           -1.2538     4.7673     0.5279 H       
  56 H56            0.0843     6.5166     5.2509 H       
  57 H57           -1.2703     9.3149     2.3291 H       
  58 H58           -1.1682     7.5677     0.5986 H       
@<TRIPOS>BOND
   1    1    2 1
   2    1    3 1
   3    1    4 1
   4    1    8 1
   5    2    3 1
   6    2   35 1
   7    2   36 1
   8    3   37 1
   9    3   38 1
  10    4    5 2
  11    4    6 2
  12    4    7 am
  13    7   13 1
  14    7   39 1
  15    8    9 1
  16    8   40 1
  17    8   41 1
  18    9   10 1
  19    9   12 1
  20    9   42 1
  21   10   11 1
  22   10   43 1
  23   10   44 1
  24   11   45 1
  25   12   46 1
  26   13   14 ar
  27   13   18 ar
  28   14   15 ar
  29   14   24 1
  30   15   16 ar
  31   15   34 1
  32   16   17 ar
  33   16   33 1
  34   17   18 ar
  35   17   47 1
  36   18   19 1
  37   19   20 1
  38   20   21 1
  39   20   48 1
  40   20   49 1
  41   21   22 1
  42   21   50 1
  43   21   51 1
  44   22   23 1
  45   23   52 1
  46   23   53 1
  47   23   54 1
  48   24   25 1
  49   24   55 1
  50   25   26 ar
  51   25   30 ar
  52   26   27 ar
  53   26   32 1
  54   27   28 ar
  55   27   56 1
  56   28   29 ar
  57   28   31 1
  58   29   30 ar
  59   29   57 1
  60   30   58 1

#	End of record

