#	Name: ASD00311001
#	Creating user name:	WinNT
#	Creation time:	15. 06. 2019 18:34

#	Modifying user name:	WinNT
#	Modification time:	15. 06. 2019 18:34

#	Program:	/corina/corina34_cracker 3.40 0067  02.08.2006

@<TRIPOS>MOLECULE
ASD00311001
  26   27    0    0    0
SMALL
NO_CHARGES


@<TRIPOS>ATOM
   1 C1            -0.0158     1.3141     0.0093 C.ar    
   2 N2             0.0021    -0.0041     0.0020 N.ar    
   3 C3             1.1287    -0.6885    -0.0125 C.ar    
   4 C4             2.3501    -0.0438    -0.0207 C.ar    
   5 C5             2.3788     1.3545    -0.0135 C.ar    
   6 C6             1.1595     2.0394     0.0019 C.ar    
   7 C7             3.6717     3.5509    -0.0136 C.2     
   8 C8             3.6653     2.0898    -0.0214 C.2     
   9 C9             6.0624     6.4012    -0.0203 C.ar    
  10 C10            4.8516     5.6924    -0.0130 C.ar    
  11 C11            4.8451     4.2217    -0.0208 C.2     
  12 C12            6.0122     7.7833    -0.0120 C.ar    
  13 C13            4.7822     8.4170     0.0032 C.ar    
  14 N14            3.6579     7.7258     0.0098 N.ar    
  15 C15            3.6503     6.4097     0.0024 C.ar    
  16 O16            4.7165     1.4768    -0.0343 O.2     
  17 H17           -0.9624     1.8339     0.0166 H       
  18 H18            1.0962    -1.7680    -0.0176 H       
  19 H19            3.2692    -0.6109    -0.0322 H       
  20 H20            1.1373     3.1192     0.0076 H       
  21 H21            2.7388     4.0950    -0.0021 H       
  22 H22            7.0090     5.8812    -0.0278 H       
  23 H23            5.7780     3.6776    -0.0323 H       
  24 H24            6.9239     8.3622    -0.0169 H       
  25 H25            4.7415     9.4963     0.0097 H       
  26 H26            2.7095     5.8793     0.0079 H       
@<TRIPOS>BOND
   1    1    2 ar
   2    1    6 ar
   3    1   17 1
   4    2    3 ar
   5    3    4 ar
   6    3   18 1
   7    4    5 ar
   8    4   19 1
   9    5    6 ar
  10    5    8 1
  11    6   20 1
  12    7    8 1
  13    7   11 2
  14    7   21 1
  15    8   16 2
  16    9   10 ar
  17    9   12 ar
  18    9   22 1
  19   10   11 1
  20   10   15 ar
  21   11   23 1
  22   12   13 ar
  23   12   24 1
  24   13   14 ar
  25   13   25 1
  26   14   15 ar
  27   15   26 1

#	End of record

