#	Name: ASD01814717
#	Creating user name:	WinNT
#	Creation time:	15. 06. 2019 19:32

#	Modifying user name:	WinNT
#	Modification time:	15. 06. 2019 19:32

#	Program:	/corina/corina34_cracker 3.40 0067  02.08.2006

@<TRIPOS>MOLECULE
ASD01814717
  51   54    0    0    0
SMALL
NO_CHARGES


@<TRIPOS>ATOM
   1 C1            -0.0184     1.5040     0.0103 C.3     
   2 C2             0.0021    -0.0041     0.0020 C.ar    
   3 C3             1.3469    -0.3809    -0.0128 C.ar    
   4 C4             2.1705     0.8434    -0.0141 C.2     
   5 C5            -0.9872    -0.9601     0.0059 C.ar    
   6 C6            -0.6509    -2.3033    -0.0049 C.ar    
   7 C7             0.6785    -2.6876    -0.0192 C.ar    
   8 C8             1.6782    -1.7372    -0.0240 C.ar    
   9 O9             3.3858     0.8631    -0.0253 O.2     
  10 C10            1.0356    -4.1516    -0.0299 C.3     
  11 C11            1.0213    -4.6618    -1.4478 C.ar    
  12 C12           -0.1135    -5.2677    -1.9526 C.ar    
  13 C13            2.1433    -4.5184    -2.2468 C.ar    
  14 C14            2.1291    -4.9869    -3.5492 C.ar    
  15 C15            0.9941    -5.5979    -4.0512 C.ar    
  16 C16           -0.1277    -5.7356    -3.2534 C.ar    
  17 Cl17           0.9751    -6.1859    -5.6845 Cl      
  18 N18            1.3846     1.9338    -0.0008 N.am    
  19 C19           -2.4361    -0.5457     0.0225 C.3     
  20 C20           -1.7355    -3.3495    -0.0006 C.3     
  21 C21            1.8517     3.3224     0.0018 C.3     
  22 O22            1.8675     3.4273    -2.4152 O.3     
  23 F23            3.2510    -3.9211    -1.7554 F       
  24 C24            4.0459     5.1946     0.0821 C.3     
  25 O25            3.2185     4.9065     1.2111 O.3     
  26 C26            2.7168     3.5688     1.2405 C.3     
  27 C27            2.6872     3.5836    -1.2552 C.3     
  28 C28            3.2342     5.0135    -1.2032 C.3     
  29 H29           -0.5313     1.8765    -0.8764 H       
  30 H30           -0.5142     1.8670     0.9106 H       
  31 H31            2.7144    -2.0414    -0.0354 H       
  32 H32            2.0306    -4.2860     0.3945 H       
  33 H33            0.3095    -4.7071     0.5635 H       
  34 H34           -0.9896    -5.3760    -1.3305 H       
  35 H35            3.0035    -4.8752    -4.1732 H       
  36 H36           -1.0151    -6.2090    -3.6470 H       
  37 H37           -2.7954    -0.4397    -1.0011 H       
  38 H38           -3.0251    -1.3046     0.5376 H       
  39 H39           -2.5356     0.4068     0.5430 H       
  40 H40           -2.0067    -3.5959    -1.0272 H       
  41 H41           -1.3743    -4.2452     0.5048 H       
  42 H42           -2.6100    -2.9642     0.5237 H       
  43 H43            0.9942     3.9951     0.0155 H       
  44 H44            2.3331     3.5785    -3.2491 H       
  45 H45            4.4020     6.2229     0.1453 H       
  46 H46            4.8979     4.5147     0.0729 H       
  47 H47            2.1154     3.4258     2.1383 H       
  48 H48            3.5513     2.8676     1.2464 H       
  49 H49            3.5155     2.8763    -1.2960 H       
  50 H50            2.4052     5.7212    -1.2132 H       
  51 H51            3.8754     5.1898    -2.0668 H       
@<TRIPOS>BOND
   1    1    2 1
   2    1   18 1
   3    1   29 1
   4    1   30 1
   5    2    3 ar
   6    2    5 ar
   7    3    4 1
   8    3    8 ar
   9    4    9 2
  10    4   18 am
  11    5    6 ar
  12    5   19 1
  13    6    7 ar
  14    6   20 1
  15    7   10 1
  16    7    8 ar
  17    8   31 1
  18   10   11 1
  19   10   32 1
  20   10   33 1
  21   11   13 ar
  22   11   12 ar
  23   12   16 ar
  24   12   34 1
  25   13   14 ar
  26   13   23 1
  27   14   15 ar
  28   14   35 1
  29   15   16 ar
  30   15   17 1
  31   16   36 1
  32   18   21 1
  33   19   37 1
  34   19   38 1
  35   19   39 1
  36   20   40 1
  37   20   41 1
  38   20   42 1
  39   21   27 1
  40   21   26 1
  41   21   43 1
  42   22   27 1
  43   22   44 1
  44   24   25 1
  45   24   28 1
  46   24   45 1
  47   24   46 1
  48   25   26 1
  49   26   47 1
  50   26   48 1
  51   27   28 1
  52   27   49 1
  53   28   50 1
  54   28   51 1

#	End of record

