#	Name: ASD02198439
#	Creating user name:	WinNT
#	Creation time:	15. 06. 2019 20:19

#	Modifying user name:	WinNT
#	Modification time:	15. 06. 2019 20:19

#	Program:	/corina/corina34_cracker 3.40 0067  02.08.2006

@<TRIPOS>MOLECULE
ASD02198439
  45   48    0    0    0
SMALL
NO_CHARGES


@<TRIPOS>ATOM
   1 C1             0.1638     1.8641     0.1836 C.ar    
   2 S2             0.0745     0.1100     0.0434 S.o2    
   3 N3             0.0238    -0.5027     1.5810 N.am    
   4 C4            -1.0187    -0.1512     2.4375 C.ar    
   5 C5            -0.7779     0.0207     3.8185 C.ar    
   6 C6            -1.8554     0.3784     4.6651 C.ar    
   7 C7            -3.1385     0.5551     4.1228 C.ar    
   8 C8            -3.3412     0.3822     2.7871 C.ar    
   9 C9            -2.2908     0.0368     1.9422 C.ar    
  10 N10            0.4436    -0.1492     4.3312 N.ar    
  11 C11            0.6733     0.0085     5.6122 C.ar    
  12 C12           -0.3411     0.3595     6.5006 C.ar    
  13 C13           -1.6132     0.5493     6.0416 C.ar    
  14 O14           -1.1849    -0.1818    -0.5466 O.2     
  15 O15            1.3110    -0.3113    -0.5159 O.2     
  16 C16            1.3955     2.4889     0.2532 C.ar    
  17 C17            1.4691     3.8635     0.3631 C.ar    
  18 C18            0.3039     4.6188     0.4037 C.ar    
  19 C19           -0.9317     3.9881     0.3336 C.ar    
  20 C20           -0.9980     2.6134     0.2180 C.ar    
  21 N21            0.3747     6.0093     0.5153 N.3     
  22 C22           -0.9692     6.6049     0.5403 C.3     
  23 C23           -0.8467     8.1200     0.7232 C.3     
  24 O24           -0.0356     8.6576    -0.3249 O.3     
  25 C25            1.2803     8.1001    -0.3780 C.3     
  26 C26            1.1794     6.5849    -0.5721 C.3     
  27 H27            0.7194    -1.1061     1.8858 H       
  28 H28           -3.9636     0.8275     4.7641 H       
  29 H29           -4.3308     0.5195     2.3770 H       
  30 H30           -2.4768    -0.0943     0.8865 H       
  31 H31            1.6749    -0.1378     5.9888 H       
  32 H32           -0.1215     0.4817     7.5509 H       
  33 H33           -2.4116     0.8219     6.7160 H       
  34 H34            2.3010     1.9010     0.2219 H       
  35 H35            2.4313     4.3508     0.4178 H       
  36 H36           -1.8395     4.5723     0.3649 H       
  37 H37           -1.9583     2.1224     0.1631 H       
  38 H38           -1.4793     6.3917    -0.3991 H       
  39 H39           -1.5389     6.1832     1.3684 H       
  40 H40           -1.8376     8.5725     0.6851 H       
  41 H41           -0.3849     8.3341     1.6870 H       
  42 H42            1.8278     8.5383    -1.2126 H       
  43 H43            1.8040     8.3137     0.5538 H       
  44 H44            2.1781     6.1485    -0.5560 H       
  45 H45            0.7036     6.3714    -1.5292 H       
@<TRIPOS>BOND
   1    1    2 1
   2    1   16 ar
   3    1   20 ar
   4    2    3 am
   5    2   14 2
   6    2   15 2
   7    3    4 1
   8    3   27 1
   9    4    5 ar
  10    4    9 ar
  11    5    6 ar
  12    5   10 ar
  13    6    7 ar
  14    6   13 ar
  15    7    8 ar
  16    7   28 1
  17    8    9 ar
  18    8   29 1
  19    9   30 1
  20   10   11 ar
  21   11   12 ar
  22   11   31 1
  23   12   13 ar
  24   12   32 1
  25   13   33 1
  26   16   17 ar
  27   16   34 1
  28   17   18 ar
  29   17   35 1
  30   18   19 ar
  31   18   21 1
  32   19   20 ar
  33   19   36 1
  34   20   37 1
  35   21   22 1
  36   21   26 1
  37   22   23 1
  38   22   38 1
  39   22   39 1
  40   23   24 1
  41   23   40 1
  42   23   41 1
  43   24   25 1
  44   25   26 1
  45   25   42 1
  46   25   43 1
  47   26   44 1
  48   26   45 1

#	End of record

