#	Name: ASD00842250
#	Creating user name:	WinNT
#	Creation time:	15. 06. 2019 18:43

#	Modifying user name:	WinNT
#	Modification time:	15. 06. 2019 18:43

#	Program:	/corina/corina34_cracker 3.40 0067  02.08.2006

@<TRIPOS>MOLECULE
ASD00842250
  94   99    0    0    0
SMALL
NO_CHARGES


@<TRIPOS>ATOM
   1 F1             6.0916    -1.5946    -1.9726 F       
   2 C2             0.9932     1.5579    -0.2891 C.ar    
   3 C3             1.3044     0.2353    -0.5684 C.ar    
   4 C4             1.2434    -0.7170     0.4389 C.ar    
   5 C5             0.8731    -0.3460     1.7168 C.ar    
   6 C6             0.5629     0.9731     1.9926 C.ar    
   7 C7             0.6234     1.9238     0.9909 C.ar    
   8 C8             1.5803    -2.1549     0.1388 C.3     
   9 C9             1.3198    -3.0245     1.3503 C.2     
  10 C10            0.7742    -2.6534    -1.0622 C.3     
  11 C11           -0.6951    -2.4389    -0.8051 C.2     
  12 N12           -1.6072    -2.8983    -1.6845 N.am    
  13 O13           -1.0567    -1.8527     0.1932 O.2     
  14 C14           -3.0377    -2.6033    -1.5117 C.3     
  15 C15           -3.5798    -2.0347    -2.8274 C.3     
  16 N16           -3.2644    -2.9601    -3.9239 N.3     
  17 C17           -1.8131    -3.0960    -4.1056 C.3     
  18 C18           -1.1979    -3.7029    -2.8456 C.3     
  19 C19           -3.9140    -2.5382    -5.1721 C.3     
  20 C20           -3.4646    -3.4507    -6.3166 C.3     
  21 C21           -4.1907    -3.0450    -7.6012 C.3     
  22 N22           -5.6412    -3.1582    -7.4017 N.3     
  23 C23           -6.1031    -2.2559    -6.3392 C.3     
  24 C24           -5.4341    -2.6381    -5.0170 C.3     
  25 C25           -6.3659    -2.9100    -8.6552 C.3     
  26 O26            0.2513    -3.1948     1.8984 O.2     
  27 N27            2.4944    -3.5728     1.7039 N.am    
  28 C28            3.0625    -2.3098    -0.1134 C.ar    
  29 C29            3.5374    -3.1738     0.8653 C.ar    
  30 C30            3.9104    -1.7813    -1.0608 C.ar    
  31 C31            5.2562    -2.1105    -1.0446 C.ar    
  32 C32            5.7423    -2.9719    -0.0727 C.ar    
  33 C33            4.8911    -3.5020     0.8778 C.ar    
  34 F34            7.0542    -3.2942    -0.0551 F       
  35 C35            2.4349    -6.2391     2.3831 C.ar    
  36 C36            1.1913    -6.6195     1.9006 C.ar    
  37 C37            3.4800    -7.1429     2.3845 C.ar    
  38 C38            3.2871    -8.4252     1.9052 C.ar    
  39 C39            2.0482    -8.8068     1.4237 C.ar    
  40 C40            1.0002    -7.9072     1.4205 C.ar    
  41 H41            1.9001    -9.8092     1.0498 H       
  42 O42            0.1616    -5.7325     1.8986 O.3     
  43 C43           -1.0906    -6.1933     1.3871 C.3     
  44 C44           -7.8600    -3.1583    -8.4382 C.3     
  45 C45           -6.1480    -1.4599    -9.0917 C.3     
  46 S46            2.6837    -4.6026     2.9868 S.o2    
  47 O47            4.0495    -4.5195     3.3700 O.2     
  48 O48            1.6090    -4.3358     3.8774 O.2     
  49 O49            1.6680    -0.1273    -1.8267 O.3     
  50 C50            2.1396     0.3191    -4.1545 C.3     
  51 C51            1.6004     0.8807    -2.8373 C.3     
  52 H52            1.0443     2.3017    -1.0704 H       
  53 H53            0.8254    -1.0869     2.5012 H       
  54 H54            0.2729     1.2610     2.9923 H       
  55 H55            0.3807     2.9534     1.2088 H       
  56 H56            1.0715    -2.1013    -1.9538 H       
  57 H57            0.9655    -3.7160    -1.2123 H       
  58 H58           -3.5728    -3.5192    -1.2606 H       
  59 H59           -3.1669    -1.8704    -0.7153 H       
  60 H60           -4.6605    -1.9135    -2.7534 H       
  61 H61           -3.1175    -1.0673    -3.0235 H       
  62 H62           -1.6124    -3.7443    -4.9585 H       
  63 H63           -1.3753    -2.1138    -4.2839 H       
  64 H64           -0.1112    -3.6996    -2.9306 H       
  65 H65           -1.5551    -4.7250    -2.7196 H       
  66 H66           -3.6368    -1.5083    -5.3970 H       
  67 H67           -2.3887    -3.3516    -6.4600 H       
  68 H68           -3.7062    -4.4854    -6.0733 H       
  69 H69           -3.9379    -2.0147    -7.8514 H       
  70 H70           -3.8837    -3.7020    -8.4149 H       
  71 H71           -5.8413    -1.2293    -6.5953 H       
  72 H72           -7.1850    -2.3398    -6.2364 H       
  73 H73           -5.7066    -3.6600    -4.7533 H       
  74 H74           -5.7652    -1.9584    -4.2318 H       
  75 H75           -5.9945    -3.5821    -9.4288 H       
  76 H76            3.5268    -1.1112    -1.8159 H       
  77 H77            5.2762    -4.1720     1.6322 H       
  78 H78            4.4485    -6.8473     2.7600 H       
  79 H79            4.1055    -9.1300     1.9065 H       
  80 H80            0.0326    -8.2060     1.0451 H       
  81 H81           -0.9676    -6.5017     0.3489 H       
  82 H82           -1.4353    -7.0409     1.9795 H       
  83 H83           -1.8240    -5.3889     1.4427 H       
  84 H84           -8.3977    -2.9741    -9.3682 H       
  85 H85           -8.0152    -4.1913    -8.1272 H       
  86 H86           -8.2314    -2.4862    -7.6646 H       
  87 H87           -5.0836    -1.2831    -9.2463 H       
  88 H88           -6.6857    -1.2758   -10.0218 H       
  89 H89           -6.5194    -0.7878    -8.3181 H       
  90 H90            3.1451    -0.0715    -3.9984 H       
  91 H91            1.4880    -0.4829    -4.5014 H       
  92 H92            2.1697     1.1118    -4.9021 H       
  93 H93            0.5643     1.1914    -2.9719 H       
  94 H94            2.2008     1.7388    -2.5354 H       
@<TRIPOS>BOND
   1    1   31 1
   2    2    3 ar
   3    2    7 ar
   4    2   52 1
   5    3    4 ar
   6    3   49 1
   7    4    5 ar
   8    4    8 1
   9    5    6 ar
  10    5   53 1
  11    6    7 ar
  12    6   54 1
  13    7   55 1
  14    8    9 1
  15    8   10 1
  16    8   28 1
  17    9   26 2
  18    9   27 am
  19   10   11 1
  20   10   56 1
  21   10   57 1
  22   11   12 am
  23   11   13 2
  24   12   14 1
  25   12   18 1
  26   14   15 1
  27   14   58 1
  28   14   59 1
  29   15   16 1
  30   15   60 1
  31   15   61 1
  32   16   17 1
  33   16   19 1
  34   17   18 1
  35   17   62 1
  36   17   63 1
  37   18   64 1
  38   18   65 1
  39   19   20 1
  40   19   24 1
  41   19   66 1
  42   20   21 1
  43   20   67 1
  44   20   68 1
  45   21   22 1
  46   21   69 1
  47   21   70 1
  48   22   23 1
  49   22   25 1
  50   23   24 1
  51   23   71 1
  52   23   72 1
  53   24   73 1
  54   24   74 1
  55   25   44 1
  56   25   45 1
  57   25   75 1
  58   27   46 am
  59   27   29 1
  60   28   29 ar
  61   28   30 ar
  62   29   33 ar
  63   30   31 ar
  64   30   76 1
  65   31   32 ar
  66   32   33 ar
  67   32   34 1
  68   33   77 1
  69   35   36 ar
  70   35   37 ar
  71   35   46 1
  72   36   42 1
  73   36   40 ar
  74   37   38 ar
  75   37   78 1
  76   38   39 ar
  77   38   79 1
  78   39   40 ar
  79   39   41 1
  80   40   80 1
  81   42   43 1
  82   43   81 1
  83   43   82 1
  84   43   83 1
  85   44   84 1
  86   44   85 1
  87   44   86 1
  88   45   87 1
  89   45   88 1
  90   45   89 1
  91   46   47 2
  92   46   48 2
  93   49   51 1
  94   50   51 1
  95   50   90 1
  96   50   91 1
  97   50   92 1
  98   51   93 1
  99   51   94 1

#	End of record

