#	Name: ASD08150906
#	Creating user name:	WinNT
#	Creation time:	15. 06. 2019 21:16

#	Modifying user name:	WinNT
#	Modification time:	15. 06. 2019 21:16

#	Program:	/corina/corina34_cracker 3.40 0067  02.08.2006

@<TRIPOS>MOLECULE
ASD08150906
  47   51    0    0    0
SMALL
NO_CHARGES


@<TRIPOS>ATOM
   1 N1            -0.2658     1.4055     0.0625 N.2     
   2 C2            -0.6658     0.2711     0.5579 C.2     
   3 N3            -0.3341     0.1971     1.8793 N.pl3   
   4 C4             0.3096     1.3633     2.2076 C.ar    
   5 N5             0.8508     1.8543     3.3179 N.ar    
   6 C6             1.4180     3.0497     3.3188 C.ar    
   7 N7             1.4747     3.8075     2.2311 N.ar    
   8 C8             0.9587     3.3944     1.0788 C.ar    
   9 C9             0.3465     2.1302     1.0312 C.ar    
  10 N10            1.9712     3.5267     4.4958 N.pl3   
  11 N11            1.0222     4.1918    -0.0502 N.pl3   
  12 C12            1.6637     5.5072     0.0172 C.3     
  13 C13            2.1472     5.9109    -1.3771 C.3     
  14 N14            0.5783     9.7941     2.1283 N.ar    
  15 N15           -0.2789    10.6529     2.5513 N.ar    
  16 C16           -1.5894    10.4742     2.4648 C.ar    
  17 C17           -2.1039     9.3368     1.9068 C.ar    
  18 C18           -1.1921     8.3754     1.4328 C.ar    
  19 C19           -1.6151     7.1731     0.8423 C.ar    
  20 C20           -0.6898     6.2731     0.3968 C.ar    
  21 C21            0.6717     6.5247     0.5190 C.ar    
  22 C22            1.1286     7.6968     1.0957 C.ar    
  23 C23            0.1931     8.6483     1.5655 C.ar    
  24 C24            2.5825     7.9526     1.2194 C.ar    
  25 C25            3.1699     9.0054     0.5183 C.ar    
  26 C26            4.5265     9.2391     0.6383 C.ar    
  27 C27            5.3015     8.4293     1.4533 C.ar    
  28 C28            4.7227     7.3842     2.1497 C.ar    
  29 C29            3.3677     7.1452     2.0417 C.ar    
  30 F30            5.0982    10.2580    -0.0400 F       
  31 F31           -2.9337     6.9082     0.7149 F       
  32 H32           -1.1843    -0.4982     0.0050 H       
  33 H33           -0.5199    -0.5438     2.4771 H       
  34 H34            1.9386     2.9866     5.3008 H       
  35 H35            2.3911     4.4009     4.5149 H       
  36 H36            0.6420     3.8799    -0.8863 H       
  37 H37            2.5139     5.4624     0.6978 H       
  38 H38            1.2969     5.9557    -2.0577 H       
  39 H39            2.6244     6.8895    -1.3270 H       
  40 H40            2.8647     5.1749    -1.7401 H       
  41 H41           -2.2581    11.2350     2.8394 H       
  42 H42           -3.1702     9.1820     1.8326 H       
  43 H43           -1.0212     5.3503    -0.0560 H       
  44 H44            2.5660     9.6362    -0.1171 H       
  45 H45            6.3615     8.6150     1.5447 H       
  46 H46            5.3317     6.7559     2.7828 H       
  47 H47            2.9168     6.3312     2.5899 H       
@<TRIPOS>BOND
   1    1    2 2
   2    1    9 1
   3    2    3 1
   4    2   32 1
   5    3    4 1
   6    3   33 1
   7    4    5 ar
   8    4    9 ar
   9    5    6 ar
  10    6    7 ar
  11    6   10 1
  12    7    8 ar
  13    8    9 ar
  14    8   11 1
  15   10   34 1
  16   10   35 1
  17   11   12 1
  18   11   36 1
  19   12   13 1
  20   12   21 1
  21   12   37 1
  22   13   38 1
  23   13   39 1
  24   13   40 1
  25   14   15 ar
  26   14   23 ar
  27   15   16 ar
  28   16   17 ar
  29   16   41 1
  30   17   18 ar
  31   17   42 1
  32   18   19 ar
  33   18   23 ar
  34   19   20 ar
  35   19   31 1
  36   20   21 ar
  37   20   43 1
  38   21   22 ar
  39   22   23 ar
  40   22   24 1
  41   24   25 ar
  42   24   29 ar
  43   25   26 ar
  44   25   44 1
  45   26   27 ar
  46   26   30 1
  47   27   28 ar
  48   27   45 1
  49   28   29 ar
  50   28   46 1
  51   29   47 1

#	End of record

