#	Name: ASD05250068
#	Creating user name:	WinNT
#	Creation time:	15. 06. 2019 20:58

#	Modifying user name:	WinNT
#	Modification time:	15. 06. 2019 20:58

#	Program:	/corina/corina34_cracker 3.40 0067  02.08.2006

@<TRIPOS>MOLECULE
ASD05250068
  30   31    0    0    0
SMALL
NO_CHARGES


@<TRIPOS>ATOM
   1 C1            -0.0168     1.3845     0.0097 C.ar    
   2 C2             0.0021    -0.0041     0.0020 C.ar    
   3 C3            -1.1876    -0.7204     0.0091 C.ar    
   4 C4            -2.3998    -0.0538     0.0238 C.ar    
   5 C5            -2.4255     1.3462     0.0320 C.ar    
   6 C6            -1.2225     2.0627     0.0306 C.ar    
   7 O7             1.1516     2.0785     0.0022 O.3     
   8 O8            -1.1610    -2.0792     0.0011 O.3     
   9 C9            -3.7090     2.0601     0.0476 C.2     
  10 C10           -3.7306     3.4157     0.0555 C.2     
  11 C11           -4.9697     4.1050     0.0705 C.ar    
  12 C12           -4.9748     5.5118     0.0786 C.ar    
  13 C13           -6.1432     6.1999     0.0930 C.ar    
  14 C14           -7.4086     5.4615     0.1001 C.ar    
  15 C15           -7.3685     3.9970     0.0914 C.ar    
  16 C16           -6.1677     3.3673     0.0713 C.ar    
  17 N17           -8.5646     6.1045     0.1145 N.2     
  18 N18           -9.5288     5.5269     0.1199 N.1     
  19 N19          -10.4931     4.9494     0.1252 N.pl3   
  20 H20            0.9458    -0.5290    -0.0098 H       
  21 H21           -3.3243    -0.6120     0.0285 H       
  22 H22           -1.2358     3.1426     0.0372 H       
  23 H23            1.4814     2.2841    -0.8833 H       
  24 H24           -1.1450    -2.4774     0.8821 H       
  25 H25           -4.6355     1.5052     0.0527 H       
  26 H26           -2.8041     3.9707     0.0504 H       
  27 H27           -4.0382     6.0494     0.0736 H       
  28 H28           -6.1409     7.2798     0.0995 H       
  29 H29           -8.2848     3.4254     0.0964 H       
  30 H30           -6.1305     2.2880     0.0647 H       
@<TRIPOS>BOND
   1    1    2 ar
   2    1    7 1
   3    1    6 ar
   4    2    3 ar
   5    2   20 1
   6    3    4 ar
   7    3    8 1
   8    4    5 ar
   9    4   21 1
  10    5    6 ar
  11    5    9 1
  12    6   22 1
  13    7   23 1
  14    8   24 1
  15    9   10 2
  16    9   25 1
  17   10   11 1
  18   10   26 1
  19   11   12 ar
  20   11   16 ar
  21   12   13 ar
  22   12   27 1
  23   13   14 ar
  24   13   28 1
  25   14   15 ar
  26   14   17 1
  27   15   16 ar
  28   15   29 1
  29   16   30 1
  30   17   18 2
  31   18   19 2

#	End of record

