#	Name: ASD00840756
#	Creating user name:	WinNT
#	Creation time:	15. 06. 2019 18:39

#	Modifying user name:	WinNT
#	Modification time:	15. 06. 2019 18:39

#	Program:	/corina/corina34_cracker 3.40 0067  02.08.2006

@<TRIPOS>MOLECULE
ASD00840756
  84   89    0    0    0
SMALL
NO_CHARGES


@<TRIPOS>ATOM
   1 F1             6.0660    -1.9523    -2.0296 F       
   2 N2             1.0627     1.4585    -0.7562 N.ar    
   3 C3             1.3243     0.1665    -0.8621 C.ar    
   4 C4             1.2443    -0.6652     0.2478 C.ar    
   5 C5             0.8864    -0.1241     1.4701 C.ar    
   6 C6             0.6199     1.2366     1.5393 C.ar    
   7 C7             0.7190     2.0033     0.3955 C.ar    
   8 C8             1.5427    -2.1370     0.1223 C.3     
   9 C9             1.2606    -2.8486     1.4283 C.2     
  10 C10            0.7225    -2.7539    -1.0124 C.3     
  11 C11           -0.7395    -2.4632    -0.7910 C.2     
  12 N12           -1.6637    -2.9847    -1.6219 N.am    
  13 O13           -1.0845    -1.7598     0.1349 O.2     
  14 C14           -3.0810    -2.6217    -1.4875 C.3     
  15 C15           -3.9096    -3.9048    -1.3697 C.3     
  16 C16           -3.6043    -4.8156    -2.5611 C.3     
  17 C17           -2.1217    -5.1951    -2.5484 C.3     
  18 C18           -1.2721    -3.9223    -2.6831 C.3     
  19 N19           -4.4218    -6.0326    -2.4689 N.3     
  20 C20           -4.2435    -6.8782    -3.6575 C.3     
  21 C21           -5.0477    -8.1692    -3.4872 C.3     
  22 N22           -6.4655    -7.8374    -3.2884 N.3     
  23 C23           -6.6438    -6.9918    -2.0997 C.3     
  24 C24           -5.8396    -5.7008    -2.2700 C.3     
  25 H25           -6.8516    -7.3943    -4.1085 H       
  26 O26            0.1885    -2.9241     1.9905 O.2     
  27 N27            2.4207    -3.3815     1.8474 N.am    
  28 C28            3.0200    -2.3600    -0.1065 C.ar    
  29 C29            3.4730    -3.1132     0.9694 C.ar    
  30 C30            3.8807    -1.9712    -1.1081 C.ar    
  31 C31            5.2176    -2.3320    -1.0492 C.ar    
  32 C32            5.6810    -3.0831     0.0191 C.ar    
  33 C33            4.8176    -3.4730     1.0236 C.ar    
  34 Cl34           7.3551    -3.5360     0.0948 Cl      
  35 C35            2.2912    -5.9450     2.8405 C.ar    
  36 C36            1.0373    -6.3472     2.4045 C.ar    
  37 C37            3.3119    -6.8694     2.9521 C.ar    
  38 C38            3.0846    -8.1943     2.6293 C.ar    
  39 C39            1.8354    -8.5978     2.1943 C.ar    
  40 C40            0.8116    -7.6776     2.0815 C.ar    
  41 H41            1.6603    -9.6334     1.9427 H       
  42 O42            0.0316    -5.4399     2.2943 O.3     
  43 C43           -1.2330    -5.9253     1.8390 C.3     
  44 S44            2.5840    -4.2551     3.2447 S.o2    
  45 O45            3.9520    -4.1630     3.6179 O.2     
  46 O46            1.5178    -3.8553     4.0948 O.2     
  47 O47            1.6736    -0.3519    -2.0663 O.3     
  48 C48            2.1650    -0.1930    -4.4272 C.3     
  49 C49            1.6302     0.5304    -3.1896 C.3     
  50 H50            0.8157    -0.7462     2.3501 H       
  51 H51            0.3376     1.6905     2.4778 H       
  52 H52            0.5131     3.0623     0.4440 H       
  53 H53            1.0382    -2.3254    -1.9636 H       
  54 H54            0.8799    -3.8324    -1.0297 H       
  55 H55           -3.2194    -2.0140    -0.5933 H       
  56 H56           -3.3994    -2.0605    -2.3661 H       
  57 H57           -3.6538    -4.4193    -0.4435 H       
  58 H58           -4.9703    -3.6538    -1.3661 H       
  59 H59           -3.8370    -4.2914    -3.4880 H       
  60 H60           -1.8828    -5.6975    -1.6111 H       
  61 H61           -1.9099    -5.8626    -3.3837 H       
  62 H62           -1.4442    -3.4698    -3.6597 H       
  63 H63           -0.2171    -4.1742    -2.5756 H       
  64 H64           -4.5957    -6.3440    -4.5399 H       
  65 H65           -3.1874    -7.1206    -3.7762 H       
  66 H66           -4.9401    -8.7851    -4.3800 H       
  67 H67           -4.6774    -8.7167    -2.6205 H       
  68 H68           -7.6999    -6.7494    -1.9810 H       
  69 H69           -6.2916    -7.5260    -1.2173 H       
  70 H70           -5.9472    -5.0849    -1.3772 H       
  71 H71           -6.2099    -5.1533    -3.1367 H       
  72 H72            3.5147    -1.3861    -1.9388 H       
  73 H73            5.1856    -4.0584     1.8532 H       
  74 H74            4.2884    -6.5567     3.2915 H       
  75 H75            3.8839    -8.9152     2.7165 H       
  76 H76           -0.1640    -7.9934     1.7425 H       
  77 H77           -1.1195    -6.3588     0.8454 H       
  78 H78           -1.5994    -6.6865     2.5278 H       
  79 H79           -1.9447    -5.1008     1.7965 H       
  80 H80            3.1622    -0.5807    -4.2188 H       
  81 H81            1.5000    -1.0184    -4.6813 H       
  82 H82            2.2138     0.5048    -5.2631 H       
  83 H83            0.6009     0.8419    -3.3673 H       
  84 H84            2.2453     1.4071    -2.9870 H       
@<TRIPOS>BOND
   1    1   31 1
   2    2    3 ar
   3    2    7 ar
   4    3    4 ar
   5    3   47 1
   6    4    5 ar
   7    4    8 1
   8    5    6 ar
   9    5   50 1
  10    6    7 ar
  11    6   51 1
  12    7   52 1
  13    8    9 1
  14    8   10 1
  15    8   28 1
  16    9   26 2
  17    9   27 am
  18   10   11 1
  19   10   53 1
  20   10   54 1
  21   11   12 am
  22   11   13 2
  23   12   14 1
  24   12   18 1
  25   14   15 1
  26   14   55 1
  27   14   56 1
  28   15   16 1
  29   15   57 1
  30   15   58 1
  31   16   17 1
  32   16   19 1
  33   16   59 1
  34   17   18 1
  35   17   60 1
  36   17   61 1
  37   18   62 1
  38   18   63 1
  39   19   20 1
  40   19   24 1
  41   20   21 1
  42   20   64 1
  43   20   65 1
  44   21   22 1
  45   21   66 1
  46   21   67 1
  47   22   23 1
  48   22   25 1
  49   23   24 1
  50   23   68 1
  51   23   69 1
  52   24   70 1
  53   24   71 1
  54   27   44 am
  55   27   29 1
  56   28   29 ar
  57   28   30 ar
  58   29   33 ar
  59   30   31 ar
  60   30   72 1
  61   31   32 ar
  62   32   33 ar
  63   32   34 1
  64   33   73 1
  65   35   36 ar
  66   35   37 ar
  67   35   44 1
  68   36   42 1
  69   36   40 ar
  70   37   38 ar
  71   37   74 1
  72   38   39 ar
  73   38   75 1
  74   39   40 ar
  75   39   41 1
  76   40   76 1
  77   42   43 1
  78   43   77 1
  79   43   78 1
  80   43   79 1
  81   44   45 2
  82   44   46 2
  83   47   49 1
  84   48   49 1
  85   48   80 1
  86   48   81 1
  87   48   82 1
  88   49   83 1
  89   49   84 1

#	End of record

