#	Name: ASD01914063
#	Creating user name:	WinNT
#	Creation time:	15. 06. 2019 20:02

#	Modifying user name:	WinNT
#	Modification time:	15. 06. 2019 20:02

#	Program:	/corina/corina34_cracker 3.40 0067  02.08.2006

@<TRIPOS>MOLECULE
ASD01914063
  41   43    0    0    0
SMALL
NO_CHARGES


@<TRIPOS>ATOM
   1 C1            -0.0167     1.3784     0.0096 C.ar    
   2 C2             0.0021    -0.0041     0.0020 C.ar    
   3 C3             1.2074    -0.6814    -0.0131 C.ar    
   4 C4             2.3802     1.4093    -0.0131 C.ar    
   5 C5             1.1695     2.0865     0.0021 C.ar    
   6 O6             3.5484     2.1036    -0.0201 O.3     
   7 C7             4.7565     1.3405    -0.0357 C.3     
   8 C8             5.9399     2.2735    -0.0414 C.ar    
   9 N9             7.1606     1.7732    -0.0557 N.ar    
  10 C10            8.2282     2.5442    -0.0613 C.ar    
  11 C11            8.1003     3.9335    -0.0517 C.ar    
  12 C12            6.8174     4.4944    -0.0366 C.ar    
  13 C13            5.7285     3.6408    -0.0374 C.ar    
  14 C14            9.2990     4.7988    -0.0571 C.2     
  15 N15           10.5284     4.2469    -0.0712 N.am    
  16 O16            9.1757     6.0080    -0.0486 O.2     
  17 C17            2.3963     0.0221    -0.0207 C.ar    
  18 C18           12.9551     4.2464    -0.0926 C.ar    
  19 C19           11.7163     5.1043    -0.0765 C.3     
  20 N20           13.4440     3.7863     1.0422 N.ar    
  21 C21           14.5254     3.0322     1.0764 C.ar    
  22 C22           15.1896     2.6957    -0.0876 C.ar    
  23 C23           14.7051     3.1611    -1.3008 C.ar    
  24 C24           13.5625     3.9462    -1.2975 C.ar    
  25 H25           -0.9595     1.9052     0.0169 H       
  26 H26           -0.9263    -0.5558     0.0083 H       
  27 H27            1.2194    -1.7613    -0.0187 H       
  28 H28            1.1543     3.1664     0.0077 H       
  29 H29            4.7976     0.7070     0.8504 H       
  30 H30            4.7810     0.7171    -0.9295 H       
  31 H31            9.2113     2.0972    -0.0730 H       
  32 H32            6.6813     5.5658    -0.0288 H       
  33 H33            4.7241     4.0376    -0.0259 H       
  34 H34           10.6268     3.2819    -0.0780 H       
  35 H35            3.3375    -0.5074    -0.0325 H       
  36 H36           11.7023     5.7390    -0.9626 H       
  37 H37           11.7180     5.7282     0.8173 H       
  38 H38           14.8964     2.6738     2.0253 H       
  39 H39           16.0751     2.0784    -0.0530 H       
  40 H40           15.2037     2.9145    -2.2265 H       
  41 H41           13.1570     4.3255    -2.2238 H       
@<TRIPOS>BOND
   1    1    2 ar
   2    1    5 ar
   3    1   25 1
   4    2    3 ar
   5    2   26 1
   6    3   17 ar
   7    3   27 1
   8    4    5 ar
   9    4    6 1
  10    4   17 ar
  11    5   28 1
  12    6    7 1
  13    7    8 1
  14    7   29 1
  15    7   30 1
  16    8    9 ar
  17    8   13 ar
  18    9   10 ar
  19   10   11 ar
  20   10   31 1
  21   11   12 ar
  22   11   14 1
  23   12   13 ar
  24   12   32 1
  25   13   33 1
  26   14   15 am
  27   14   16 2
  28   15   19 1
  29   15   34 1
  30   17   35 1
  31   18   20 ar
  32   18   19 1
  33   18   24 ar
  34   19   36 1
  35   19   37 1
  36   20   21 ar
  37   21   22 ar
  38   21   38 1
  39   22   23 ar
  40   22   39 1
  41   23   24 ar
  42   23   40 1
  43   24   41 1

#	End of record

