#	Name: ASD01880209
#	Creating user name:	WinNT
#	Creation time:	15. 06. 2019 19:40

#	Modifying user name:	WinNT
#	Modification time:	15. 06. 2019 19:40

#	Program:	/corina/corina34_cracker 3.40 0067  02.08.2006

@<TRIPOS>MOLECULE
ASD01880209
  47   49    0    0    0
SMALL
NO_CHARGES


@<TRIPOS>ATOM
   1 N1            -0.0178     1.4608     0.0101 N.am    
   2 C2             0.0021    -0.0041     0.0020 C.3     
   3 C3             0.0225    -0.5140     1.4200 C.ar    
   4 C4            -1.1661    -0.7638     2.0807 C.ar    
   5 C5            -1.1501    -1.2313     3.3806 C.ar    
   6 C6             0.0599    -1.4500     4.0230 C.ar    
   7 C7             1.2511    -1.1986     3.3578 C.ar    
   8 C8             1.2298    -0.7366     2.0561 C.ar    
   9 O9             0.0782    -1.9094     5.3018 O.3     
  10 C10            1.3601    -2.1116     5.9002 C.3     
  11 C11            1.1801    -2.6271     7.3295 C.3     
  12 C12            2.5483    -2.9617     7.9270 C.3     
  13 C13            2.3684    -3.4772     9.3562 C.3     
  14 C14            1.6907    -2.3998    10.2054 C.3     
  15 C15            0.3226    -2.0652     9.6079 C.3     
  16 C16            0.5025    -1.5498     8.1786 C.3     
  17 C17            1.1671     2.3324     0.0034 C.3     
  18 C18            0.5759     3.7553     0.0162 C.3     
  19 O19           -0.8648     3.5386     0.0285 O.3     
  20 C20           -1.1184     2.2252     0.0188 C.2     
  21 C21            1.0159     4.5077     1.2736 C.3     
  22 O22           -2.2438     1.7671     0.0258 O.2     
  23 H23           -0.8878    -0.3767    -0.5053 H       
  24 H24            0.8920    -0.3525    -0.5222 H       
  25 H25           -2.1079    -0.5930     1.5803 H       
  26 H26           -2.0788    -1.4259     3.8964 H       
  27 H27            2.1943    -1.3681     3.8558 H       
  28 H28            2.1568    -0.5407     1.5378 H       
  29 H29            1.9214    -2.8427     5.3183 H       
  30 H30            1.9047    -1.1676     5.9202 H       
  31 H31            0.5600    -3.5234     7.3171 H       
  32 H32            3.0311    -3.7292     7.3220 H       
  33 H33            3.1685    -2.0654     7.9393 H       
  34 H34            1.7483    -4.3735     9.3439 H       
  35 H35            3.3431    -3.7156     9.7819 H       
  36 H36            1.5625    -2.7671    11.2236 H       
  37 H37            2.3109    -1.5035    10.2178 H       
  38 H38           -0.2976    -2.9615     9.5955 H       
  39 H39           -0.1602    -1.2977    10.2128 H       
  40 H40            1.1226    -0.6534     8.1910 H       
  41 H41           -0.4722    -1.3114     7.7529 H       
  42 H42            1.7730     2.1616     0.8932 H       
  43 H43            1.7563     2.1706    -0.8992 H       
  44 H44            0.8727     4.3004    -0.8799 H       
  45 H45            2.1036     4.5762     1.2942 H       
  46 H46            0.5888     5.5105     1.2651 H       
  47 H47            0.6688     3.9724     2.1574 H       
@<TRIPOS>BOND
   1    1    2 1
   2    1   17 1
   3    1   20 am
   4    2    3 1
   5    2   23 1
   6    2   24 1
   7    3    4 ar
   8    3    8 ar
   9    4    5 ar
  10    4   25 1
  11    5    6 ar
  12    5   26 1
  13    6    7 ar
  14    6    9 1
  15    7    8 ar
  16    7   27 1
  17    8   28 1
  18    9   10 1
  19   10   11 1
  20   10   29 1
  21   10   30 1
  22   11   12 1
  23   11   16 1
  24   11   31 1
  25   12   13 1
  26   12   32 1
  27   12   33 1
  28   13   14 1
  29   13   34 1
  30   13   35 1
  31   14   15 1
  32   14   36 1
  33   14   37 1
  34   15   16 1
  35   15   38 1
  36   15   39 1
  37   16   40 1
  38   16   41 1
  39   17   18 1
  40   17   42 1
  41   17   43 1
  42   18   19 1
  43   18   21 1
  44   18   44 1
  45   19   20 1
  46   20   22 2
  47   21   45 1
  48   21   46 1
  49   21   47 1

#	End of record

