#	Name: ASD03240285
#	Creating user name:	WinNT
#	Creation time:	15. 06. 2019 20:34

#	Modifying user name:	WinNT
#	Modification time:	15. 06. 2019 20:34

#	Program:	/corina/corina34_cracker 3.40 0067  02.08.2006

@<TRIPOS>MOLECULE
ASD03240285
 100  106    0    0    0
SMALL
NO_CHARGES


@<TRIPOS>ATOM
   1 C1            -0.1144     1.2187    -0.6126 C.2     
   2 N2            -0.0095    -0.0231    -0.0319 N.pl3   
   3 C3            -3.6699     2.2405    -0.0327 C.3     
   4 C4            -2.4758     1.2897     0.0723 C.3     
   5 N5            -1.3117     1.8937    -0.5805 N.pl3   
   6 N6             0.9228     1.7584    -1.1888 N.2     
   7 N7            -4.8340     1.6365     0.6202 N.pl3   
   8 C8            -6.0427     2.3179     0.6525 C.ar    
   9 C9            -7.1581     1.7392     1.2781 C.ar    
  10 C10           -8.3654     2.4248     1.3084 C.ar    
  11 C11           -8.4623     3.6851     0.7168 C.ar    
  12 C12           -7.3454     4.2538     0.0957 C.ar    
  13 C13           -6.1473     3.5763     0.0703 C.ar    
  14 C14           -9.7427     4.4172     0.7459 C.2     
  15 N15           -9.8363     5.6343     0.1745 N.am    
  16 O16          -10.7139     3.9226     1.2856 O.2     
  17 C17          -11.0768     6.2810     0.1030 C.ar    
  18 C18          -11.1472     7.6629     0.2211 C.ar    
  19 C19          -12.2355     5.5407    -0.0916 C.ar    
  20 C20          -13.4581     6.1781    -0.1626 C.ar    
  21 C21          -13.5293     7.5596    -0.0388 C.ar    
  22 C22          -12.3698     8.3003     0.1511 C.ar    
  23 N23          -14.7681     8.2056    -0.1111 N.pl3   
  24 C24          -14.8430     9.6628     0.0194 C.3     
  25 C25          -15.9904     7.4248    -0.3174 C.3     
  26 C26           -7.0478     0.4006     1.9037 C.ar    
  27 C27           -7.4985     0.2020     3.2095 C.ar    
  28 C28           -7.3966    -1.0408     3.7917 C.ar    
  29 C29           -6.8418    -2.1046     3.0745 C.ar    
  30 C30           -6.3911    -1.9046     1.7664 C.ar    
  31 C31           -6.4986    -0.6620     1.1847 C.ar    
  32 C32          -16.5613     7.0233     1.0182 C.ar    
  33 C33          -14.7169    10.2963    -1.3422 C.ar    
  34 C34          -17.4710     7.8482     1.6548 C.ar    
  35 C35          -17.9971     7.4854     2.8782 C.ar    
  36 C36          -17.6102     6.2856     3.4718 C.ar    
  37 C37          -16.6935     5.4585     2.8261 C.ar    
  38 C38          -16.1781     5.8285     1.6004 C.ar    
  39 C39          -15.8502    10.5366    -2.0980 C.ar    
  40 C40          -15.7405    11.1165    -3.3456 C.ar    
  41 C41          -14.4852    11.4600    -3.8434 C.ar    
  42 C42          -13.3470    11.2156    -3.0778 C.ar    
  43 C43          -13.4688    10.6404    -1.8291 C.ar    
  44 C44          -18.1721     5.8905     4.7872 C.ar    
  45 C45          -14.3610    12.0833    -5.1843 C.ar    
  46 C46          -17.7852     4.6908     5.3809 C.ar    
  47 C47          -18.3109     4.3282     6.6044 C.ar    
  48 C48          -19.2207     5.1531     7.2410 C.ar    
  49 C49          -19.6085     6.3450     6.6560 C.ar    
  50 C50          -19.0841     6.7206     5.4358 C.ar    
  51 C51          -13.1057    12.4268    -5.6822 C.ar    
  52 C52          -12.9960    13.0063    -6.9300 C.ar    
  53 C53          -14.1292    13.2467    -7.6858 C.ar    
  54 C54          -15.3779    12.9081    -7.1963 C.ar    
  55 C55          -15.4987    12.3220    -5.9526 C.ar    
  56 C56           -6.7348    -3.3982     3.6793 C.1     
  57 N57           -6.6499    -4.4244     4.1591 N.1     
  58 H58            0.8363    -0.4976    -0.0510 H       
  59 H59           -0.7813    -0.4247     0.3969 H       
  60 H60           -3.4274     3.1837     0.4569 H       
  61 H61           -3.8969     2.4240    -1.0829 H       
  62 H62           -2.2488     1.1061     1.1225 H       
  63 H63           -2.7182     0.3465    -0.4172 H       
  64 H64           -1.3857     2.7698    -0.9902 H       
  65 H65            1.7686     1.2839    -1.2079 H       
  66 H66           -4.7600     0.7604     1.0299 H       
  67 H67           -9.2268     1.9840     1.7881 H       
  68 H68           -7.4222     5.2290    -0.3621 H       
  69 H69           -5.2879     4.0201    -0.4103 H       
  70 H70           -9.0446     6.0624    -0.1872 H       
  71 H71          -10.2455     8.2389     0.3680 H       
  72 H72          -12.1802     4.4665    -0.1878 H       
  73 H73          -14.3592     5.6024    -0.3147 H       
  74 H74          -12.4250     9.3746     0.2473 H       
  75 H75          -15.8003     9.9392     0.4615 H       
  76 H76          -14.0328    10.0124     0.6593 H       
  77 H77          -16.7199     8.0279    -0.8579 H       
  78 H78          -15.7573     6.5311    -0.8963 H       
  79 H79           -7.9272     1.0241     3.7635 H       
  80 H80           -7.7449    -1.1940     4.8025 H       
  81 H81           -5.9623    -2.7257     1.2113 H       
  82 H82           -6.1508    -0.5072     0.1740 H       
  83 H83          -17.7699     8.7781     1.1940 H       
  84 H84          -18.7070     8.1304     3.3745 H       
  85 H85          -16.3903     4.5275     3.2818 H       
  86 H86          -15.4675     5.1881     1.0990 H       
  87 H87          -16.8226    10.2696    -1.7113 H       
  88 H88          -16.6259    11.3034    -3.9351 H       
  89 H89          -12.3716    11.4799    -3.4588 H       
  90 H90          -12.5873    10.4506    -1.2347 H       
  91 H91          -17.0755     4.0456     4.8843 H       
  92 H92          -18.0118     3.3985     7.0654 H       
  93 H93          -19.6299     4.8653     8.1981 H       
  94 H94          -20.3194     6.9851     7.1572 H       
  95 H95          -19.3873     7.6516     4.9801 H       
  96 H96          -12.2203    12.2402    -5.0926 H       
  97 H97          -12.0235    13.2729    -7.3168 H       
  98 H98          -14.0388    13.7007    -8.6615 H       
  99 H99          -16.2594    13.0983    -7.7905 H       
 100 H100         -16.4740    12.0577    -5.5715 H       
@<TRIPOS>BOND
   1    1    2 1
   2    1    6 2
   3    1    5 1
   4    2   58 1
   5    2   59 1
   6    3    4 1
   7    3    7 1
   8    3   60 1
   9    3   61 1
  10    4    5 1
  11    4   62 1
  12    4   63 1
  13    5   64 1
  14    6   65 1
  15    7    8 1
  16    7   66 1
  17    8    9 ar
  18    8   13 ar
  19    9   10 ar
  20    9   26 1
  21   10   11 ar
  22   10   67 1
  23   11   12 ar
  24   11   14 1
  25   12   13 ar
  26   12   68 1
  27   13   69 1
  28   14   15 am
  29   14   16 2
  30   15   17 1
  31   15   70 1
  32   17   18 ar
  33   17   19 ar
  34   18   22 ar
  35   18   71 1
  36   19   20 ar
  37   19   72 1
  38   20   21 ar
  39   20   73 1
  40   21   22 ar
  41   21   23 1
  42   22   74 1
  43   23   24 1
  44   23   25 1
  45   24   33 1
  46   24   75 1
  47   24   76 1
  48   25   32 1
  49   25   77 1
  50   25   78 1
  51   26   27 ar
  52   26   31 ar
  53   27   28 ar
  54   27   79 1
  55   28   29 ar
  56   28   80 1
  57   29   30 ar
  58   29   56 1
  59   30   31 ar
  60   30   81 1
  61   31   82 1
  62   32   34 ar
  63   32   38 ar
  64   33   39 ar
  65   33   43 ar
  66   34   35 ar
  67   34   83 1
  68   35   36 ar
  69   35   84 1
  70   36   37 ar
  71   36   44 1
  72   37   38 ar
  73   37   85 1
  74   38   86 1
  75   39   40 ar
  76   39   87 1
  77   40   41 ar
  78   40   88 1
  79   41   42 ar
  80   41   45 1
  81   42   43 ar
  82   42   89 1
  83   43   90 1
  84   44   46 ar
  85   44   50 ar
  86   45   51 ar
  87   45   55 ar
  88   46   47 ar
  89   46   91 1
  90   47   48 ar
  91   47   92 1
  92   48   49 ar
  93   48   93 1
  94   49   50 ar
  95   49   94 1
  96   50   95 1
  97   51   52 ar
  98   51   96 1
  99   52   53 ar
 100   52   97 1
 101   53   54 ar
 102   53   98 1
 103   54   55 ar
 104   54   99 1
 105   55  100 1
 106   56   57 3

#	End of record

