#	Name: ASD01940068
#	Creating user name:	WinNT
#	Creation time:	15. 06. 2019 20:11

#	Modifying user name:	WinNT
#	Modification time:	15. 06. 2019 20:11

#	Program:	/corina/corina34_cracker 3.40 0067  02.08.2006

@<TRIPOS>MOLECULE
ASD01940068
  59   60    0    0    0
SMALL
NO_CHARGES


@<TRIPOS>ATOM
   1 C1             0.5230     2.0080    -1.3930 C.ar    
   2 C2             1.1588     1.4475    -2.4923 C.ar    
   3 C3             0.5198     1.4166    -3.7171 C.ar    
   4 C4            -0.7516     1.9431    -3.8496 C.ar    
   5 C5            -1.3895     2.5028    -2.7572 C.ar    
   6 C6            -0.7589     2.5320    -1.5274 C.ar    
   7 C7            -1.4441     1.9075    -5.1876 C.3     
   8 F8            -1.3820     3.0782    -0.4603 F       
   9 N9             1.1672     2.0407    -0.1520 N.pl3   
  10 C10            2.3862     1.3985     0.0142 C.ar    
  11 C11            3.5801     2.0567    -0.3278 C.ar    
  12 C12            4.8024     1.4074    -0.1591 C.ar    
  13 C13            4.8338     0.1112     0.3470 C.ar    
  14 C14            3.6379    -0.5394     0.6856 C.ar    
  15 C15            2.4275     0.1047     0.5248 C.ar    
  16 F16            1.2792    -0.5272     0.8527 F       
  17 F17            3.6713    -1.7978     1.1761 F       
  18 C18            6.1246    -0.5786     0.5268 C.2     
  19 N19            6.1541    -1.7841     0.9973 N.2     
  20 O20            7.3936    -2.4465     1.1700 O.3     
  21 C21            7.2770    -3.7697     1.6970 C.3     
  22 C22            8.6700    -4.3860     1.8408 C.3     
  23 O23            9.4159    -3.6550     2.8161 O.3     
  24 C24            3.5401     3.4290    -0.8636 C.2     
  25 O25            2.4719     3.9865    -1.0285 O.2     
  26 N26            4.6873     4.0662    -1.1708 N.am    
  27 O27            4.6488     5.3848    -1.6856 O.3     
  28 C28            5.9366     5.9369    -1.9665 C.3     
  29 C29            5.7745     7.3561    -2.5146 C.3     
  30 O30            5.2154     8.1964    -1.5030 O.3     
  31 C31           -1.5945     0.4555    -5.6456 C.3     
  32 C32           -2.8277     2.5488    -5.0629 C.3     
  33 C33           -0.6134     2.6822    -6.2126 C.3     
  34 H34            2.1521     1.0361    -2.3906 H       
  35 H35            1.0146     0.9808    -4.5725 H       
  36 H36           -2.3826     2.9134    -2.8643 H       
  37 H37            0.7619     2.5123     0.5925 H       
  38 H38            5.7225     1.9088    -0.4207 H       
  39 H39            7.0453    -0.0781     0.2658 H       
  40 H40            6.7944    -3.7306     2.6735 H       
  41 H41            6.6782    -4.3790     1.0199 H       
  42 H42            8.5768    -5.4246     2.1581 H       
  43 H43            9.1866    -4.3440     0.8819 H       
  44 H44           10.3112    -3.9910     2.9594 H       
  45 H45            5.5393     3.6216    -1.0393 H       
  46 H46            6.5269     5.9662    -1.0507 H       
  47 H47            6.4439     5.3175    -2.7062 H       
  48 H48            6.7487     7.7442    -2.8118 H       
  49 H49            5.1113     7.3381    -3.3794 H       
  50 H50            5.0845     9.1132    -1.7813 H       
  51 H51           -2.1863    -0.0965    -4.9154 H       
  52 H52           -2.0954     0.4297    -6.6134 H       
  53 H53           -0.6088    -0.0014    -5.7344 H       
  54 H54           -2.7205     3.5833    -4.7366 H       
  55 H55           -3.3286     2.5231    -6.0307 H       
  56 H56           -3.4195     1.9969    -4.3327 H       
  57 H57            0.3722     2.2253    -6.3014 H       
  58 H58           -1.1143     2.6565    -7.1803 H       
  59 H59           -0.5063     3.7167    -5.8863 H       
@<TRIPOS>BOND
   1    1    2 ar
   2    1    9 1
   3    1    6 ar
   4    2    3 ar
   5    2   34 1
   6    3    4 ar
   7    3   35 1
   8    4    5 ar
   9    4    7 1
  10    5    6 ar
  11    5   36 1
  12    6    8 1
  13    7   31 1
  14    7   32 1
  15    7   33 1
  16    9   10 1
  17    9   37 1
  18   10   11 ar
  19   10   15 ar
  20   11   12 ar
  21   11   24 1
  22   12   13 ar
  23   12   38 1
  24   13   14 ar
  25   13   18 1
  26   14   15 ar
  27   14   17 1
  28   15   16 1
  29   18   19 2
  30   18   39 1
  31   19   20 1
  32   20   21 1
  33   21   22 1
  34   21   40 1
  35   21   41 1
  36   22   23 1
  37   22   42 1
  38   22   43 1
  39   23   44 1
  40   24   25 2
  41   24   26 am
  42   26   27 1
  43   26   45 1
  44   27   28 1
  45   28   29 1
  46   28   46 1
  47   28   47 1
  48   29   30 1
  49   29   48 1
  50   29   49 1
  51   30   50 1
  52   31   51 1
  53   31   52 1
  54   31   53 1
  55   32   54 1
  56   32   55 1
  57   32   56 1
  58   33   57 1
  59   33   58 1
  60   33   59 1

#	End of record

