#	Name: ASD01883022
#	Creating user name:	WinNT
#	Creation time:	15. 06. 2019 19:45

#	Modifying user name:	WinNT
#	Modification time:	15. 06. 2019 19:45

#	Program:	/corina/corina34_cracker 3.40 0067  02.08.2006

@<TRIPOS>MOLECULE
ASD01883022
  51   53    0    0    0
SMALL
NO_CHARGES


@<TRIPOS>ATOM
   1 N1            -0.0162     1.3417     0.0094 N.am    
   2 C2             0.0021    -0.0041     0.0020 C.2     
   3 C3            -1.2159    -0.7274     0.0102 C.2     
   4 C4            -2.4262    -0.0109     0.0261 C.2     
   5 C5            -2.3786     1.3974     0.0332 C.2     
   6 C6            -1.1851     2.0327     0.0299 C.2     
   7 O7             1.0657    -0.6000    -0.0122 O.2     
   8 C8            -1.2149    -2.1593     0.0021 C.1     
   9 N9            -1.2141    -3.2953    -0.0044 N.1     
  10 C10            1.2513     2.0763     0.0013 C.3     
  11 C11            1.6788     2.3398    -1.4440 C.3     
  12 C12           -5.7772    -1.2775     1.1446 C.ar    
  13 C13           -4.5704    -0.6152     1.1398 C.ar    
  14 C14           -3.7215    -0.7207     0.0347 C.ar    
  15 C15           -4.1008    -1.4988    -1.0625 C.ar    
  16 C16           -5.3088    -2.1588    -1.0517 C.ar    
  17 C17           -6.1523    -2.0514     0.0502 C.ar    
  18 N18           -7.3735    -2.7196     0.0579 N.pl3   
  19 C19           -8.8479    -3.5758     3.4416 C.3     
  20 O20          -10.1764    -3.7931     2.9622 O.3     
  21 C21          -10.6191    -2.8235     2.0103 C.3     
  22 C22           -9.7081    -2.8647     0.7806 C.3     
  23 C23           -8.2625    -2.6075     1.2169 C.3     
  24 C24           -7.8657    -3.6473     2.2694 C.3     
  25 C25            3.0025     3.1070    -1.4525 C.3     
  26 C26            3.4299     3.3705    -2.8978 C.3     
  27 H27           -3.2949     1.9689     0.0450 H       
  28 H28           -1.1610     3.1124     0.0358 H       
  29 H29            1.1243     3.0257     0.5214 H       
  30 H30            2.0168     1.4857     0.5046 H       
  31 H31            1.8057     1.3903    -1.9642 H       
  32 H32            0.9133     2.9303    -1.9474 H       
  33 H33           -6.4317    -1.2000     2.0002 H       
  34 H34           -4.2801    -0.0146     1.9891 H       
  35 H35           -3.4470    -1.5820    -1.9181 H       
  36 H36           -5.6025    -2.7603    -1.8993 H       
  37 H37           -7.6358    -3.2594    -0.7041 H       
  38 H38           -8.7860    -2.5926     3.9082 H       
  39 H39           -8.5959    -4.3425     4.1743 H       
  40 H40          -11.6430    -3.0482     1.7119 H       
  41 H41          -10.5804    -1.8305     2.4582 H       
  42 H42           -9.7773    -3.8449     0.3088 H       
  43 H43          -10.0171    -2.0959     0.0724 H       
  44 H44           -8.1828    -1.6078     1.6439 H       
  45 H45           -6.8572    -3.4381     2.6260 H       
  46 H46           -7.8977    -4.6433     1.8277 H       
  47 H47            2.8755     4.0564    -0.9323 H       
  48 H48            3.7680     2.5164    -0.9491 H       
  49 H49            3.5569     2.4210    -3.4179 H       
  50 H50            2.6645     3.9610    -3.4011 H       
  51 H51            4.3730     3.9170    -2.9038 H       
@<TRIPOS>BOND
   1    1    2 am
   2    1   10 1
   3    1    6 1
   4    2    3 1
   5    2    7 2
   6    3    4 2
   7    3    8 1
   8    4    5 1
   9    4   14 1
  10    5    6 2
  11    5   27 1
  12    6   28 1
  13    8    9 3
  14   10   11 1
  15   10   29 1
  16   10   30 1
  17   11   25 1
  18   11   31 1
  19   11   32 1
  20   12   13 ar
  21   12   17 ar
  22   12   33 1
  23   13   14 ar
  24   13   34 1
  25   14   15 ar
  26   15   16 ar
  27   15   35 1
  28   16   17 ar
  29   16   36 1
  30   17   18 1
  31   18   23 1
  32   18   37 1
  33   19   20 1
  34   19   24 1
  35   19   38 1
  36   19   39 1
  37   20   21 1
  38   21   22 1
  39   21   40 1
  40   21   41 1
  41   22   23 1
  42   22   42 1
  43   22   43 1
  44   23   24 1
  45   23   44 1
  46   24   45 1
  47   24   46 1
  48   25   26 1
  49   25   47 1
  50   25   48 1
  51   26   49 1
  52   26   50 1
  53   26   51 1

#	End of record

