#	Name: ASD01100016
#	Creating user name:	WinNT
#	Creation time:	15. 06. 2019 18:58

#	Modifying user name:	WinNT
#	Modification time:	15. 06. 2019 18:58

#	Program:	/corina/corina34_cracker 3.40 0067  02.08.2006

@<TRIPOS>MOLECULE
ASD01100016
  41   42    0    0    0
SMALL
NO_CHARGES


@<TRIPOS>ATOM
   1 C1             0.1626     1.2998    -0.9276 C.ar    
   2 C2             0.2379    -0.0798    -0.9982 C.ar    
   3 C3             1.4374    -0.7206    -0.7434 C.ar    
   4 C4             2.5596     0.0179    -0.4184 C.ar    
   5 C5             2.4837     1.3964    -0.3479 C.ar    
   6 C6             1.2855     2.0372    -0.6025 C.ar    
   7 C7             3.7076     2.2010     0.0070 C.3     
   8 C8             3.4386     3.0031     1.2818 C.3     
   9 C9             3.2237     2.0424     2.4530 C.3     
  10 C10            4.6365     3.9078     1.5774 C.3     
  11 Cl11          -1.1722    -1.0067    -1.4059 Cl      
  12 C12            4.0326     3.1453    -1.1216 C.2     
  13 N13            5.1866     3.8414    -1.1066 N.am    
  14 O14            3.2557     3.2790    -2.0432 O.2     
  15 C15            5.4648     4.8211    -2.1597 C.3     
  16 C16            6.8092     5.4558    -1.9130 C.ar    
  17 C17            7.9492     4.8931    -2.4558 C.ar    
  18 C18            9.1824     5.4752    -2.2295 C.ar    
  19 C19            9.2755     6.6203    -1.4606 C.ar    
  20 C20            8.1354     7.1834    -0.9186 C.ar    
  21 C21            6.9017     6.6038    -1.1485 C.ar    
  22 H22           -0.7723     1.8008    -1.1307 H       
  23 H23            1.4967    -1.7975    -0.7980 H       
  24 H24            3.4959    -0.4822    -0.2191 H       
  25 H25            1.2269     3.1142    -0.5473 H       
  26 H26            4.5494     1.5284     0.1717 H       
  27 H27            2.5466     3.6145     1.1450 H       
  28 H28            4.1157     1.4311     2.5898 H       
  29 H29            3.0321     2.6139     3.3612 H       
  30 H30            2.3703     1.3979     2.2424 H       
  31 H31            4.8522     4.5223     0.7033 H       
  32 H32            4.4050     4.5516     2.4259 H       
  33 H33            5.5058     3.2940     1.8135 H       
  34 H34            5.8330     3.6937    -0.3986 H       
  35 H35            5.4712     4.3214    -3.1284 H       
  36 H36            4.6929     5.5907    -2.1530 H       
  37 H37            7.8764     3.9985    -3.0565 H       
  38 H38           10.0731     5.0352    -2.6530 H       
  39 H39           10.2390     7.0747    -1.2832 H       
  40 H40            8.2082     8.0779    -0.3176 H       
  41 H41            6.0109     7.0438    -0.7250 H       
@<TRIPOS>BOND
   1    1    2 ar
   2    1    6 ar
   3    1   22 1
   4    2    3 ar
   5    2   11 1
   6    3    4 ar
   7    3   23 1
   8    4    5 ar
   9    4   24 1
  10    5    6 ar
  11    5    7 1
  12    6   25 1
  13    7    8 1
  14    7   12 1
  15    7   26 1
  16    8    9 1
  17    8   10 1
  18    8   27 1
  19    9   28 1
  20    9   29 1
  21    9   30 1
  22   10   31 1
  23   10   32 1
  24   10   33 1
  25   12   13 am
  26   12   14 2
  27   13   15 1
  28   13   34 1
  29   15   16 1
  30   15   35 1
  31   15   36 1
  32   16   17 ar
  33   16   21 ar
  34   17   18 ar
  35   17   37 1
  36   18   19 ar
  37   18   38 1
  38   19   20 ar
  39   19   39 1
  40   20   21 ar
  41   20   40 1
  42   21   41 1

#	End of record

