#	Name: ASD01871029
#	Creating user name:	WinNT
#	Creation time:	15. 06. 2019 19:39

#	Modifying user name:	WinNT
#	Modification time:	15. 06. 2019 19:39

#	Program:	/corina/corina34_cracker 3.40 0067  02.08.2006

@<TRIPOS>MOLECULE
ASD01871029
  27   29    0    0    0
SMALL
NO_CHARGES


@<TRIPOS>ATOM
   1 C1            -0.0162     1.3405     0.0094 C.2     
   2 C2             0.0021    -0.0041     0.0020 C.2     
   3 S3            -1.6654    -0.5717     0.0160 S.3     
   4 C4            -2.2295     1.0416     0.0304 C.2     
   5 N5            -1.2338     1.8676     0.0296 N.2     
   6 O6            -3.5354     1.4043     0.0449 O.3     
   7 C7            -4.4698     0.4205     0.0489 C.ar    
   8 C8            -5.8223     0.7440     0.0637 C.ar    
   9 N9            -4.0956    -0.8510     0.0332 N.ar    
  10 C10           -5.0083    -1.8073     0.0367 C.ar    
  11 C11           -6.3520    -1.4827     0.0567 C.ar    
  12 N12           -6.7288    -0.2155     0.0671 N.ar    
  13 C13            1.2200     2.1645     0.0020 C.2     
  14 C14            2.5387     1.6847    -0.1126 C.2     
  15 N15            3.3489     2.7099    -0.0793 N.2     
  16 N16            2.5853     3.8756     0.0569 N.pl3   
  17 C17            1.2829     3.5233     0.0992 C.2     
  18 C18           -4.5835    -3.2531     0.0183 C.3     
  19 H19            0.8844    -0.6268    -0.0106 H       
  20 H20           -6.1306     1.7791     0.0728 H       
  21 H21           -7.0955    -2.2660     0.0595 H       
  22 H22            2.8302     0.6494    -0.2107 H       
  23 H23            2.9320     4.7801     0.1082 H       
  24 H24            0.4433     4.1952     0.1994 H       
  25 H25           -4.4676    -3.6108     1.0414 H       
  26 H26           -5.3416    -3.8481    -0.4909 H       
  27 H27           -3.6340    -3.3461    -0.5089 H       
@<TRIPOS>BOND
   1    1    2 2
   2    1   13 1
   3    1    5 1
   4    2    3 1
   5    2   19 1
   6    3    4 1
   7    4    5 2
   8    4    6 1
   9    6    7 1
  10    7    8 ar
  11    7    9 ar
  12    8   12 ar
  13    8   20 1
  14    9   10 ar
  15   10   11 ar
  16   10   18 1
  17   11   12 ar
  18   11   21 1
  19   13   14 1
  20   13   17 2
  21   14   15 2
  22   14   22 1
  23   15   16 1
  24   16   17 1
  25   16   23 1
  26   17   24 1
  27   18   25 1
  28   18   26 1
  29   18   27 1

#	End of record

