#	Name: ASD05660001
#	Creating user name:	WinNT
#	Creation time:	15. 06. 2019 21:01

#	Modifying user name:	WinNT
#	Modification time:	15. 06. 2019 21:01

#	Program:	/corina/corina34_cracker 3.40 0067  02.08.2006

@<TRIPOS>MOLECULE
ASD05660001
  24   26    0    0    0
SMALL
NO_CHARGES


@<TRIPOS>ATOM
   1 C1            -0.0189     1.5440     0.0105 C.3     
   2 C2             0.0021    -0.0041     0.0020 C.3     
   3 Cl3           -1.5427    -0.6605    -0.6564 Cl      
   4 Cl4           -0.8252     2.1549     1.5030 Cl      
   5 C5             1.4685     1.9472    -0.0015 C.3     
   6 C6             2.2408     0.7469    -0.6162 C.3     
   7 C7             1.1829    -0.3240    -0.9468 C.3     
   8 C8             1.6511     3.0812    -1.0591 C.3     
   9 C9             2.7887     1.3144    -1.9636 C.3     
  10 C10            1.5304     1.5608    -2.8049 C.2     
  11 C11            0.8735     2.5809    -2.2825 C.2     
  12 Cl12           1.2775     4.7559    -0.5054 Cl      
  13 C13            3.1204     2.7911    -1.5377 C.3     
  14 Cl14           3.6070     3.8202    -2.9359 Cl      
  15 Cl15           4.3141     2.8690    -0.1887 Cl      
  16 Cl16          -0.6166     3.2422    -2.8791 Cl      
  17 Cl17           1.0511     0.6539    -4.2054 Cl      
  18 Cl18           4.1038     0.3662    -2.7524 Cl      
  19 H19           -0.5234     1.9229    -0.8783 H       
  20 H20            0.1903    -0.3934     1.0026 H       
  21 H21            1.8353     2.2211     0.9877 H       
  22 H22            3.0252     0.3707     0.0406 H       
  23 H23            1.5743    -1.3211    -0.7449 H       
  24 H24            0.8688    -0.2406    -1.9872 H       
@<TRIPOS>BOND
   1    1    2 1
   2    1    5 1
   3    1    4 1
   4    1   19 1
   5    2    3 1
   6    2    7 1
   7    2   20 1
   8    5    6 1
   9    5    8 1
  10    5   21 1
  11    6    7 1
  12    6    9 1
  13    6   22 1
  14    7   23 1
  15    7   24 1
  16    8   11 1
  17    8   12 1
  18    8   13 1
  19    9   10 1
  20    9   18 1
  21    9   13 1
  22   10   17 1
  23   10   11 2
  24   11   16 1
  25   13   14 1
  26   13   15 1

#	End of record

