#	Name: ASD02030027
#	Creating user name:	WinNT
#	Creation time:	15. 06. 2019 20:14

#	Modifying user name:	WinNT
#	Modification time:	15. 06. 2019 20:14

#	Program:	/corina/corina34_cracker 3.40 0067  02.08.2006

@<TRIPOS>MOLECULE
ASD02030027
  43   46    0    0    0
SMALL
NO_CHARGES


@<TRIPOS>ATOM
   1 C1            -0.0166     1.3738     0.0096 C.ar    
   2 C2             0.0021    -0.0041     0.0020 C.ar    
   3 C3            -1.2051    -0.7123     0.0022 C.ar    
   4 C4            -2.4319    -0.0139     0.0330 C.ar    
   5 C5            -2.4313     1.3745     0.0339 C.ar    
   6 C6            -1.2291     2.0558     0.0189 C.ar    
   7 C7             1.2450     2.1986     0.0020 C.3     
   8 C8             2.4432     1.3527     0.4270 C.3     
   9 C9             2.4590     0.0765    -0.4227 C.3     
  10 C10            1.2818    -0.7986     0.0021 C.3     
  11 C11           -1.1938    -2.1917    -0.0439 C.2     
  12 C12           -2.4220    -2.9125     0.4700 C.2     
  13 C13           -3.6793    -2.1723     0.2916 C.2     
  14 C14           -3.6854    -0.7855     0.0805 C.2     
  15 C15           -5.0669    -2.5873     0.2815 C.2     
  16 C16           -5.7835    -1.4631     0.0714 C.2     
  17 O17           -4.9539    -0.4088    -0.0462 O.3     
  18 O18           -0.2387    -2.8023    -0.4767 O.2     
  19 O19           -2.3726    -4.0106     0.9861 O.2     
  20 C20           -5.6000    -3.9847     0.4664 C.3     
  21 C21           -5.7380    -4.2844     1.9604 C.3     
  22 C22            1.4849     2.7402    -1.4087 C.3     
  23 C23            1.0865     3.3716     0.9714 C.3     
  24 H24           -3.3642     1.9185     0.0439 H       
  25 H25           -1.2308     3.1358     0.0198 H       
  26 H26            3.3641     1.9129     0.2652 H       
  27 H27            2.3525     1.0909     1.4812 H       
  28 H28            2.3619     0.3359    -1.4769 H       
  29 H29            3.3933    -0.4610    -0.2608 H       
  30 H30            1.4647    -1.1848     1.0048 H       
  31 H31            1.1862    -1.6337    -0.6918 H       
  32 H32           -6.8606    -1.4161     0.0075 H       
  33 H33           -6.5756    -4.0677    -0.0125 H       
  34 H34           -4.9115    -4.6989     0.0146 H       
  35 H35           -4.7623    -4.2014     2.4393 H       
  36 H36           -6.4264    -3.5702     2.4121 H       
  37 H37           -6.1235    -5.2951     2.0941 H       
  38 H38            0.6406     3.3612    -1.7079 H       
  39 H39            2.3967     3.3374    -1.4184 H       
  40 H40            1.5884     1.9078    -2.1047 H       
  41 H41            0.9052     2.9904     1.9764 H       
  42 H42            1.9971     3.9707     0.9688 H       
  43 H43            0.2443     3.9893     0.6597 H       
@<TRIPOS>BOND
   1    1    2 ar
   2    1    7 1
   3    1    6 ar
   4    2    3 ar
   5    2   10 1
   6    3    4 ar
   7    3   11 1
   8    4    5 ar
   9    4   14 1
  10    5    6 ar
  11    5   24 1
  12    6   25 1
  13    7    8 1
  14    7   22 1
  15    7   23 1
  16    8    9 1
  17    8   26 1
  18    8   27 1
  19    9   10 1
  20    9   28 1
  21    9   29 1
  22   10   30 1
  23   10   31 1
  24   11   12 1
  25   11   18 2
  26   12   13 1
  27   12   19 2
  28   13   14 2
  29   13   15 1
  30   14   17 1
  31   15   16 2
  32   15   20 1
  33   16   17 1
  34   16   32 1
  35   20   21 1
  36   20   33 1
  37   20   34 1
  38   21   35 1
  39   21   36 1
  40   21   37 1
  41   22   38 1
  42   22   39 1
  43   22   40 1
  44   23   41 1
  45   23   42 1
  46   23   43 1

#	End of record

