#	Name: ASD03330657
#	Creating user name:	WinNT
#	Creation time:	15. 06. 2019 20:37

#	Modifying user name:	WinNT
#	Modification time:	15. 06. 2019 20:37

#	Program:	/corina/corina34_cracker 3.40 0067  02.08.2006

@<TRIPOS>MOLECULE
ASD03330657
  61   63    0    0    0
SMALL
NO_CHARGES


@<TRIPOS>ATOM
   1 C1             0.1611     1.2205     0.7157 C.2     
   2 N2             0.2496    -0.1103     0.9859 N.pl3   
   3 C3             1.4335     1.7000     0.6368 C.2     
   4 N4             2.2794     0.6665     0.8398 N.2     
   5 C5             1.5781    -0.4289     1.0452 C.2     
   6 C6             2.1287    -1.7648     1.2949 C.2     
   7 C7             1.8189     3.0980     0.3758 C.2     
   8 O8             0.9614     3.9440     0.2077 O.2     
   9 C9             3.5049     4.8292     0.0639 C.3     
  10 N10            3.1217     3.4393     0.3234 N.am    
  11 C11            3.5302     5.0780    -1.4456 C.3     
  12 C12            2.1145     4.9390    -2.0091 C.3     
  13 C13            4.0525     6.4894    -1.7212 C.3     
  14 C14            4.4487     4.0544    -2.1159 C.3     
  15 C15            4.8737     5.0886     0.6387 C.2     
  16 N16            5.3560     6.3461     0.6894 N.am    
  17 O17            5.5411     4.1658     1.0556 O.2     
  18 C18            6.7172     6.5895     1.1732 C.3     
  19 C19           -0.8861    -1.0141     1.1872 C.3     
  20 C20           -1.9129    -0.7862     0.0734 C.3     
  21 C21           -2.8734     0.3275     0.4775 C.3     
  22 N22           -2.1936     1.3434     1.2835 N.3     
  23 C23           -1.1167     1.9958     0.5240 C.3     
  24 C24           -3.1491     2.3334     1.7982 C.3     
  25 C25            4.0153    -3.2886     1.5784 C.2     
  26 C26            3.4628    -1.9481     1.3278 C.2     
  27 C27            5.4308    -3.5692     1.6295 C.2     
  28 C28            3.2454    -4.3884     1.7910 C.2     
  29 S29            4.2146    -5.7670     2.0463 S.3     
  30 C30            5.6995    -4.8484     1.8688 C.2     
  31 H31            1.4646    -2.6018     1.4523 H       
  32 H32            2.7821     5.4986     0.5304 H       
  33 H33            3.8056     2.7646     0.4574 H       
  34 H34            1.4602     5.6683    -1.5316 H       
  35 H35            2.1325     5.1163    -3.0844 H       
  36 H36            1.7424     3.9335    -1.8128 H       
  37 H37            5.0133     6.6247    -1.2245 H       
  38 H38            4.1761     6.6278    -2.7953 H       
  39 H39            3.3403     7.2213    -1.3401 H       
  40 H40            4.0766     3.0488    -1.9195 H       
  41 H41            4.4667     4.2316    -3.1912 H       
  42 H42            5.4572     4.1534    -1.7144 H       
  43 H43            4.8018     7.0900     0.4057 H       
  44 H44            6.8080     6.2311     2.1985 H       
  45 H45            7.4283     6.0602     0.5389 H       
  46 H46            6.9282     7.6585     1.1419 H       
  47 H47           -0.5395    -2.0471     1.1574 H       
  48 H48           -1.3464    -0.8110     2.1542 H       
  49 H49           -1.3960    -0.5040    -0.8438 H       
  50 H50           -2.4740    -1.7052    -0.0959 H       
  51 H51           -3.2773     0.7949    -0.4206 H       
  52 H52           -3.6924    -0.0992     1.0566 H       
  53 H53           -0.9820     3.0154     0.8852 H       
  54 H54           -1.3765     2.0142    -0.5344 H       
  55 H55           -3.8912     1.8328     2.4202 H       
  56 H56           -2.6177     3.0761     2.3932 H       
  57 H57           -3.6475     2.8257     0.9631 H       
  58 H58            4.1269    -1.1111     1.1704 H       
  59 H59            6.1926    -2.8170     1.4873 H       
  60 H60            2.1654    -4.3886     1.7980 H       
  61 H61            6.6932    -5.2649     1.9429 H       
@<TRIPOS>BOND
   1    1    2 1
   2    1    3 2
   3    1   23 1
   4    2   19 1
   5    2    5 1
   6    3    4 1
   7    3    7 1
   8    4    5 2
   9    5    6 1
  10    6   26 2
  11    6   31 1
  12    7    8 2
  13    7   10 am
  14    9   10 1
  15    9   11 1
  16    9   15 1
  17    9   32 1
  18   10   33 1
  19   11   12 1
  20   11   13 1
  21   11   14 1
  22   12   34 1
  23   12   35 1
  24   12   36 1
  25   13   37 1
  26   13   38 1
  27   13   39 1
  28   14   40 1
  29   14   41 1
  30   14   42 1
  31   15   16 am
  32   15   17 2
  33   16   18 1
  34   16   43 1
  35   18   44 1
  36   18   45 1
  37   18   46 1
  38   19   20 1
  39   19   47 1
  40   19   48 1
  41   20   21 1
  42   20   49 1
  43   20   50 1
  44   21   22 1
  45   21   51 1
  46   21   52 1
  47   22   23 1
  48   22   24 1
  49   23   53 1
  50   23   54 1
  51   24   55 1
  52   24   56 1
  53   24   57 1
  54   25   26 1
  55   25   27 1
  56   25   28 2
  57   26   58 1
  58   27   30 2
  59   27   59 1
  60   28   29 1
  61   28   60 1
  62   29   30 1
  63   30   61 1

#	End of record

