#	Name: ASD01880856
#	Creating user name:	WinNT
#	Creation time:	15. 06. 2019 19:41

#	Modifying user name:	WinNT
#	Modification time:	15. 06. 2019 19:41

#	Program:	/corina/corina34_cracker 3.40 0067  02.08.2006

@<TRIPOS>MOLECULE
ASD01880856
  48   50    0    0    0
SMALL
NO_CHARGES


@<TRIPOS>ATOM
   1 N1            -0.0159     1.3188     0.0093 N.ar    
   2 C2             0.0021    -0.0041     0.0020 C.ar    
   3 N3             1.1383    -0.6823    -0.0120 N.ar    
   4 C4             2.3018    -0.0529    -0.0198 C.ar    
   5 C5             2.3203     1.3332    -0.0129 C.ar    
   6 C6             1.1118     2.0109     0.0022 C.ar    
   7 C7             3.6257     2.0861    -0.0209 C.3     
   8 O8             4.7114     1.1571    -0.0353 O.3     
   9 C9             5.9656     1.6753    -0.0439 C.ar    
  10 C10            7.0683     0.8266    -0.0581 C.ar    
  11 C11            8.3365     1.3520    -0.0673 C.ar    
  12 C12            8.5286     2.7376    -0.0625 C.ar    
  13 C13            7.4177     3.5855    -0.0487 C.ar    
  14 C14            6.1476     3.0531    -0.0444 C.ar    
  15 C15            9.7113     0.7317    -0.0829 C.3     
  16 N16           10.6642     1.8475    -0.0864 N.am    
  17 C17            9.9776     3.0029    -0.0746 C.2     
  18 O18           10.4809     4.1097    -0.0744 O.2     
  19 C19            7.6093     5.0803    -0.0428 C.3     
  20 O20           -1.1713    -0.6808     0.0096 O.3     
  21 C21           -1.0972    -2.1079     0.0012 C.3     
  22 C22           12.6191     1.6858    -1.5472 C.3     
  23 C23           12.1238     1.7227    -0.1000 C.3     
  24 C24            1.0579     4.0343    -1.4303 C.3     
  25 C25            1.0822     3.5176     0.0096 C.3     
  26 H26            3.2258    -0.6119    -0.0309 H       
  27 H27            3.6757     2.7172    -0.9082 H       
  28 H28            3.6917     2.7082     0.8717 H       
  29 H29            6.9266    -0.2441    -0.0615 H       
  30 H30            5.2895     3.7089    -0.0341 H       
  31 H31            9.8558     0.1184     0.8065 H       
  32 H32            9.8393     0.1268    -0.9806 H       
  33 H33            7.6466     5.4459    -1.0690 H       
  34 H34            6.7772     5.5512     0.4806 H       
  35 H35            8.5426     5.3250     0.4642 H       
  36 H36           -0.5738    -2.4393    -0.8956 H       
  37 H37           -0.5568    -2.4488     0.8843 H       
  38 H38           -2.1046    -2.5241     0.0086 H       
  39 H39           13.7051     1.5929    -1.5573 H       
  40 H40           12.1767     0.8323    -2.0609 H       
  41 H41           12.3283     2.6058    -2.0543 H       
  42 H42           12.5663     2.5762     0.4137 H       
  43 H43           12.4146     0.8027     0.4071 H       
  44 H44            0.1701     3.6560    -1.9371 H       
  45 H45            1.0365     5.1241    -1.4249 H       
  46 H46            1.9497     3.6910    -1.9546 H       
  47 H47            0.1904     3.8609     0.5340 H       
  48 H48            1.9699     3.8960     0.5165 H       
@<TRIPOS>BOND
   1    1    2 ar
   2    1    6 ar
   3    2    3 ar
   4    2   20 1
   5    3    4 ar
   6    4    5 ar
   7    4   26 1
   8    5    6 ar
   9    5    7 1
  10    6   25 1
  11    7    8 1
  12    7   27 1
  13    7   28 1
  14    8    9 1
  15    9   10 ar
  16    9   14 ar
  17   10   11 ar
  18   10   29 1
  19   11   12 ar
  20   11   15 1
  21   12   13 ar
  22   12   17 1
  23   13   14 ar
  24   13   19 1
  25   14   30 1
  26   15   16 1
  27   15   31 1
  28   15   32 1
  29   16   17 am
  30   16   23 1
  31   17   18 2
  32   19   33 1
  33   19   34 1
  34   19   35 1
  35   20   21 1
  36   21   36 1
  37   21   37 1
  38   21   38 1
  39   22   23 1
  40   22   39 1
  41   22   40 1
  42   22   41 1
  43   23   42 1
  44   23   43 1
  45   24   25 1
  46   24   44 1
  47   24   45 1
  48   24   46 1
  49   25   47 1
  50   25   48 1

#	End of record

