#	Name: ASD03331708
#	Creating user name:	WinNT
#	Creation time:	15. 06. 2019 20:39

#	Modifying user name:	WinNT
#	Modification time:	15. 06. 2019 20:39

#	Program:	/corina/corina34_cracker 3.40 0067  02.08.2006

@<TRIPOS>MOLECULE
ASD03331708
  43   46    0    0    0
SMALL
NO_CHARGES


@<TRIPOS>ATOM
   1 C1            -0.1692     1.4612    -0.6450 C.ar    
   2 C2            -0.2173     0.1176    -0.8880 C.ar    
   3 C3             0.9400    -0.6478    -0.8491 C.ar    
   4 C4             2.1576    -0.0681    -0.5650 C.ar    
   5 C5             2.2313     1.2980    -0.3146 C.ar    
   6 C6             1.0547     2.0706    -0.3552 C.ar    
   7 N7             3.2718     2.1473    -0.0090 N.pl3   
   8 C8             2.7969     3.4294     0.1449 C.2     
   9 C9             1.4555     3.4438    -0.0534 C.2     
  10 C10            0.5505     4.6464     0.0221 C.3     
  11 C11           -0.3861     4.4975     1.1933 C.ar    
  12 C12           -0.2618     4.7552    -1.2699 C.3     
  13 N13           -1.0528     5.9881    -1.2470 N.pl3   
  14 O14           -0.5409     7.0335    -0.8884 O.2     
  15 O15           -2.2223     5.9678    -1.5865 O.2     
  16 C16           -1.5682     3.7989     1.0379 C.ar    
  17 C17           -2.4230     3.6676     2.1219 C.ar    
  18 C18           -2.0548     4.2467     3.3264 C.ar    
  19 C19           -0.8564     4.9307     3.4064 C.ar    
  20 N20           -0.0656     5.0308     2.3561 N.ar    
  21 C21            3.6228     4.6107     0.4760 C.ar    
  22 C22            3.1956     5.5133     1.4509 C.ar    
  23 C23            4.8353     4.8245    -0.1808 C.ar    
  24 C24            5.6012     5.9282     0.1331 C.ar    
  25 C25            5.1695     6.8221     1.0968 C.ar    
  26 C26            3.9709     6.6131     1.7555 C.ar    
  27 H27           -1.0732     2.0511    -0.6810 H       
  28 H28           -1.1633    -0.3528    -1.1119 H       
  29 H29            0.8857    -1.7089    -1.0431 H       
  30 H30            3.0519    -0.6729    -0.5365 H       
  31 H31            4.2000     1.8814     0.0842 H       
  32 H32            1.1520     5.5463     0.1500 H       
  33 H33            0.4150     4.7736    -2.1241 H       
  34 H34           -0.9288     3.8971    -1.3531 H       
  35 H35           -1.8232     3.3609     0.0842 H       
  36 H36           -3.3537     3.1275     2.0297 H       
  37 H37           -2.6964     4.1647     4.1913 H       
  38 H38           -0.5625     5.3850     4.3411 H       
  39 H39            2.2600     5.3514     1.9654 H       
  40 H40            5.1735     4.1273    -0.9331 H       
  41 H41            6.5399     6.0947    -0.3743 H       
  42 H42            5.7729     7.6844     1.3392 H       
  43 H43            3.6412     7.3126     2.5094 H       
@<TRIPOS>BOND
   1    1    2 ar
   2    1    6 ar
   3    1   27 1
   4    2    3 ar
   5    2   28 1
   6    3    4 ar
   7    3   29 1
   8    4    5 ar
   9    4   30 1
  10    5    7 1
  11    5    6 ar
  12    6    9 1
  13    7    8 1
  14    7   31 1
  15    8    9 2
  16    8   21 1
  17    9   10 1
  18   10   12 1
  19   10   11 1
  20   10   32 1
  21   11   16 ar
  22   11   20 ar
  23   12   13 1
  24   12   33 1
  25   12   34 1
  26   13   14 2
  27   13   15 2
  28   16   17 ar
  29   16   35 1
  30   17   18 ar
  31   17   36 1
  32   18   19 ar
  33   18   37 1
  34   19   20 ar
  35   19   38 1
  36   21   23 ar
  37   21   22 ar
  38   22   26 ar
  39   22   39 1
  40   23   24 ar
  41   23   40 1
  42   24   25 ar
  43   24   41 1
  44   25   26 ar
  45   25   42 1
  46   26   43 1

#	End of record

