#	Name: ASD09740305
#	Creating user name:	WinNT
#	Creation time:	15. 06. 2019 21:23

#	Modifying user name:	WinNT
#	Modification time:	15. 06. 2019 21:23

#	Program:	/corina/corina34_cracker 3.40 0067  02.08.2006

@<TRIPOS>MOLECULE
ASD09740305
  33   36    0    0    0
SMALL
NO_CHARGES


@<TRIPOS>ATOM
   1 N1            -0.0144     1.2085     0.0087 N.2     
   2 O2             0.0021    -0.0041     0.0020 O.3     
   3 C3             1.2057     1.6798    -0.0004 C.2     
   4 N4             2.0455     0.6238    -0.0141 N.2     
   5 C5             1.2699    -0.4439    -0.0124 C.2     
   6 C6             1.7128    -1.8545    -0.0235 C.ar    
   7 C7             1.5950     3.1130     0.0031 C.ar    
   8 C8             0.6264     4.1194     0.0178 C.ar    
   9 C9             1.0316     5.4391     0.0206 C.ar    
  10 N10            2.3123     5.7538     0.0095 N.ar    
  11 C11            3.2578     4.8344    -0.0045 C.ar    
  12 C12            2.9398     3.4911    -0.0023 C.ar    
  13 C13            0.7719    -2.8817    -0.0202 C.ar    
  14 C14            1.1980    -4.2085    -0.0311 C.ar    
  15 C15            2.5638    -4.4999    -0.0454 C.ar    
  16 C16            3.4911    -3.4766    -0.0482 C.ar    
  17 C17            3.0757    -2.1600    -0.0432 C.ar    
  18 C18            0.2067    -5.3050    -0.0272 C.2     
  19 O19           -1.1322    -5.1598    -0.0139 O.3     
  20 C20           -1.7126    -6.3709    -0.0143 C.2     
  21 C21           -0.7480    -7.3115    -0.0280 C.2     
  22 C22            0.4881    -6.6348    -0.0422 C.2     
  23 H23           -0.4241     3.8688     0.0265 H       
  24 H24            0.2901     6.2241     0.0315 H       
  25 H25            4.2947     5.1365    -0.0132 H       
  26 H26            3.7191     2.7435    -0.0139 H       
  27 H27           -0.2831    -2.6508    -0.0087 H       
  28 H28            2.8955    -5.5276    -0.0540 H       
  29 H29            4.5462    -3.7073    -0.0586 H       
  30 H30            3.8062    -1.3646    -0.0454 H       
  31 H31           -2.7760    -6.5596    -0.0053 H       
  32 H32           -0.8945    -8.3815    -0.0318 H       
  33 H33            1.4694    -7.0857    -0.0552 H       
@<TRIPOS>BOND
   1    1    2 1
   2    1    3 2
   3    2    5 1
   4    3    4 1
   5    3    7 1
   6    4    5 2
   7    5    6 1
   8    6   13 ar
   9    6   17 ar
  10    7    8 ar
  11    7   12 ar
  12    8    9 ar
  13    8   23 1
  14    9   10 ar
  15    9   24 1
  16   10   11 ar
  17   11   12 ar
  18   11   25 1
  19   12   26 1
  20   13   14 ar
  21   13   27 1
  22   14   15 ar
  23   14   18 1
  24   15   16 ar
  25   15   28 1
  26   16   17 ar
  27   16   29 1
  28   17   30 1
  29   18   19 1
  30   18   22 2
  31   19   20 1
  32   20   21 2
  33   20   31 1
  34   21   22 1
  35   21   32 1
  36   22   33 1

#	End of record

