#	Name: ASD01120223
#	Creating user name:	WinNT
#	Creation time:	15. 06. 2019 18:59

#	Modifying user name:	WinNT
#	Modification time:	15. 06. 2019 18:59

#	Program:	/corina/corina34_cracker 3.40 0067  02.08.2006

@<TRIPOS>MOLECULE
ASD01120223
  30   30    0    0    0
SMALL
NO_CHARGES


@<TRIPOS>ATOM
   1 C1            -0.0168     1.3849     0.0097 C.ar    
   2 C2             0.0021    -0.0041     0.0020 C.ar    
   3 C3             1.2161    -0.6790    -0.0132 C.ar    
   4 C4             2.3998     0.0323    -0.0207 C.ar    
   5 C5             2.3774     1.4150    -0.0126 C.ar    
   6 C6             1.1706     2.0901     0.0021 C.ar    
   7 N7            -1.1970    -0.7204     0.0101 N.pl3   
   8 S8             3.8901     2.3186    -0.0216 S.o2    
   9 N9             4.2961     2.5790    -1.6058 N.am    
  10 C10            3.5130     3.3523    -2.3838 C.2     
  11 N11            3.8434     3.5643    -3.6731 N.am    
  12 C12            2.9922     4.4048    -4.5188 C.3     
  13 C13            3.5882     4.4815    -5.9259 C.3     
  14 S14            2.5342     5.5223    -6.9730 S.3     
  15 O15            3.5988     3.5942     0.5329 O.2     
  16 O16            4.8805     1.4485     0.5086 O.2     
  17 O17            2.5084     3.8587    -1.9225 O.2     
  18 H18           -0.9590     1.9127     0.0170 H       
  19 H19            1.2343    -1.7589    -0.0188 H       
  20 H20            3.3440    -0.4918    -0.0325 H       
  21 H21            1.1567     3.1700     0.0084 H       
  22 H22           -2.0441    -0.2480     0.0210 H       
  23 H23           -1.1825    -1.6903     0.0047 H       
  24 H24            5.0975     2.1751    -1.9738 H       
  25 H25            4.6448     3.1603    -4.0411 H       
  26 H26            1.9925     3.9735    -4.5706 H       
  27 H27            2.9340     5.4068    -4.0937 H       
  28 H28            4.5879     4.9128    -5.8740 H       
  29 H29            3.6463     3.4795    -6.3509 H       
  30 H30            3.1690     5.4998    -8.1585 H       
@<TRIPOS>BOND
   1    1    2 ar
   2    1    6 ar
   3    1   18 1
   4    2    3 ar
   5    2    7 1
   6    3    4 ar
   7    3   19 1
   8    4    5 ar
   9    4   20 1
  10    5    6 ar
  11    5    8 1
  12    6   21 1
  13    7   22 1
  14    7   23 1
  15    8    9 am
  16    8   15 2
  17    8   16 2
  18    9   10 am
  19    9   24 1
  20   10   11 am
  21   10   17 2
  22   11   12 1
  23   11   25 1
  24   12   13 1
  25   12   26 1
  26   12   27 1
  27   13   14 1
  28   13   28 1
  29   13   29 1
  30   14   30 1

#	End of record

