#	Name: ASD01000060
#	Creating user name:	WinNT
#	Creation time:	15. 06. 2019 18:54

#	Modifying user name:	WinNT
#	Modification time:	15. 06. 2019 18:54

#	Program:	/corina/corina34_cracker 3.40 0067  02.08.2006

@<TRIPOS>MOLECULE
ASD01000060
  49   51    0    0    0
SMALL
NO_CHARGES


@<TRIPOS>ATOM
   1 C1             1.4443     1.1798    -1.8286 C.ar    
   2 C2             1.5028    -0.1831    -1.6047 C.ar    
   3 C3             0.9985    -0.7130    -0.4318 C.ar    
   4 C4             0.4361     0.1199     0.5174 C.ar    
   5 C5             0.3785     1.4828     0.2938 C.ar    
   6 C6             0.8815     2.0126    -0.8797 C.ar    
   7 C7             1.0613    -2.1989    -0.1881 C.3     
   8 C8             2.5018    -2.6365    -0.1214 C.ar    
   9 C9             3.5142    -1.7067    -0.2681 C.ar    
  10 C10            4.8355    -2.1082    -0.2070 C.ar    
  11 C11            5.1445    -3.4393     0.0013 C.ar    
  12 C12            4.1322    -4.3690     0.1489 C.ar    
  13 C13            2.8108    -3.9669     0.0921 C.ar    
  14 S14            0.2374    -2.5898     1.3800 S.3     
  15 C15            1.3285    -1.8310     2.6146 C.3     
  16 C16            0.8310    -2.1805     4.0185 C.3     
  17 N17           -0.5358    -1.6719     4.1945 N.3     
  18 C18            0.3681    -2.9223    -1.3138 C.2     
  19 C19           -1.0962    -3.0687    -1.3030 C.ar    
  20 C20           -1.7066    -4.0836    -2.0468 C.ar    
  21 C21           -3.0792    -4.2143    -2.0316 C.ar    
  22 C22           -3.8525    -3.3440    -1.2832 C.ar    
  23 C23           -3.2560    -2.3370    -0.5445 C.ar    
  24 C24           -1.8842    -2.1972    -0.5444 C.ar    
  25 O25            1.0168    -3.3838    -2.2284 O.2     
  26 C26            1.7375    -1.5501     5.0442 C.2     
  27 O27            1.4101    -0.5231     5.5900 O.2     
  28 O28            2.9087    -2.1295     5.3513 O.3     
  29 H29            1.8424     1.5943    -2.7430 H       
  30 H30            1.9421    -0.8338    -2.3462 H       
  31 H31            0.0414    -0.2943     1.4334 H       
  32 H32           -0.0615     2.1335     1.0351 H       
  33 H33            0.8368     3.0775    -1.0542 H       
  34 H34            3.2727    -0.6667    -0.4309 H       
  35 H35            5.6264    -1.3818    -0.3224 H       
  36 H36            6.1769    -3.7531     0.0483 H       
  37 H37            4.3736    -5.4091     0.3112 H       
  38 H38            2.0199    -4.6932     0.2074 H       
  39 H39            2.3427    -2.2084     2.4840 H       
  40 H40            1.3244    -0.7485     2.4867 H       
  41 H41            0.8351    -3.2630     4.1464 H       
  42 H42           -0.5662    -0.6698     4.0807 H       
  43 H43           -1.1755    -2.1273     3.5608 H       
  44 H44           -1.1045    -4.7631    -2.6319 H       
  45 H45           -3.5521    -4.9975    -2.6055 H       
  46 H46           -4.9272    -3.4510    -1.2759 H       
  47 H47           -3.8662    -1.6616     0.0367 H       
  48 H48           -1.4201    -1.4110     0.0326 H       
  49 H49            3.4562    -1.6881     6.0150 H       
@<TRIPOS>BOND
   1    1    2 ar
   2    1    6 ar
   3    1   29 1
   4    2    3 ar
   5    2   30 1
   6    3    4 ar
   7    3    7 1
   8    4    5 ar
   9    4   31 1
  10    5    6 ar
  11    5   32 1
  12    6   33 1
  13    7    8 1
  14    7   14 1
  15    7   18 1
  16    8    9 ar
  17    8   13 ar
  18    9   10 ar
  19    9   34 1
  20   10   11 ar
  21   10   35 1
  22   11   12 ar
  23   11   36 1
  24   12   13 ar
  25   12   37 1
  26   13   38 1
  27   14   15 1
  28   15   16 1
  29   15   39 1
  30   15   40 1
  31   16   26 1
  32   16   17 1
  33   16   41 1
  34   17   42 1
  35   17   43 1
  36   18   25 2
  37   18   19 1
  38   19   20 ar
  39   19   24 ar
  40   20   21 ar
  41   20   44 1
  42   21   22 ar
  43   21   45 1
  44   22   23 ar
  45   22   46 1
  46   23   24 ar
  47   23   47 1
  48   24   48 1
  49   26   27 2
  50   26   28 1
  51   28   49 1

#	End of record

