#	Name: ASD09740020
#	Creating user name:	WinNT
#	Creation time:	15. 06. 2019 21:22

#	Modifying user name:	WinNT
#	Modification time:	15. 06. 2019 21:22

#	Program:	/corina/corina34_cracker 3.40 0067  02.08.2006

@<TRIPOS>MOLECULE
ASD09740020
  32   34    0    0    0
SMALL
NO_CHARGES


@<TRIPOS>ATOM
   1 N1            -0.0144     1.2087     0.0087 N.2     
   2 O2             0.0021    -0.0041     0.0020 O.3     
   3 C3             1.2069     1.6747    -0.0005 C.2     
   4 N4             2.0404     0.6103    -0.0141 N.2     
   5 C5             1.2640    -0.4445    -0.0124 C.2     
   6 C6             1.7097    -1.8841    -0.0239 C.3     
   7 C7             1.6044     3.1054     0.0030 C.ar    
   8 C8             0.6415     4.1175     0.0177 C.ar    
   9 C9             1.0544     5.4347     0.0209 C.ar    
  10 N10            2.3369     5.7421     0.0103 N.ar    
  11 C11            3.2771     4.8173    -0.0037 C.ar    
  12 C12            2.9514     3.4758    -0.0025 C.ar    
  13 C13            1.1831    -2.5910     1.2266 C.3     
  14 C14            1.1600    -2.5781    -1.2717 C.3     
  15 C15            1.6124    -4.0397    -1.2835 C.3     
  16 C16            1.0858    -4.7466    -0.0329 C.3     
  17 C17            1.6355    -4.0526     1.2149 C.3     
  18 H18            2.7988    -1.9272    -0.0342 H       
  19 H19           -0.4104     3.8730     0.0260 H       
  20 H20            0.3174     6.2241     0.0318 H       
  21 H21            4.3157     5.1134    -0.0124 H       
  22 H22            3.7264     2.7238    -0.0136 H       
  23 H23            1.5747    -2.0966     2.1156 H       
  24 H24            0.0940    -2.5479     1.2369 H       
  25 H25            0.0709    -2.5350    -1.2614 H       
  26 H26            1.5351    -2.0745    -2.1626 H       
  27 H27            1.2208    -4.5341    -2.1724 H       
  28 H28            2.7015    -4.0828    -1.2938 H       
  29 H29           -0.0033    -4.7035    -0.0226 H       
  30 H30            1.4081    -5.7878    -0.0413 H       
  31 H31            2.7246    -4.0957     1.2046 H       
  32 H32            1.2603    -4.5562     2.1058 H       
@<TRIPOS>BOND
   1    1    2 1
   2    1    3 2
   3    2    5 1
   4    3    4 1
   5    3    7 1
   6    4    5 2
   7    5    6 1
   8    6   13 1
   9    6   14 1
  10    6   18 1
  11    7    8 ar
  12    7   12 ar
  13    8    9 ar
  14    8   19 1
  15    9   10 ar
  16    9   20 1
  17   10   11 ar
  18   11   12 ar
  19   11   21 1
  20   12   22 1
  21   13   17 1
  22   13   23 1
  23   13   24 1
  24   14   15 1
  25   14   25 1
  26   14   26 1
  27   15   16 1
  28   15   27 1
  29   15   28 1
  30   16   17 1
  31   16   29 1
  32   16   30 1
  33   17   31 1
  34   17   32 1

#	End of record

