#	Name: ASD01810728
#	Creating user name:	WinNT
#	Creation time:	15. 06. 2019 19:25

#	Modifying user name:	WinNT
#	Modification time:	15. 06. 2019 19:25

#	Program:	/corina/corina34_cracker 3.40 0067  02.08.2006

@<TRIPOS>MOLECULE
ASD01810728
  73   77    0    0    0
SMALL
NO_CHARGES


@<TRIPOS>ATOM
   1 C1             1.1077     0.1211    -0.8876 C.ar    
   2 C2            -0.0875     0.7924    -0.6252 C.ar    
   3 C3            -0.0413     2.0443     0.0075 C.ar    
   4 C4             1.1805     2.5609     0.3444 C.ar    
   5 C5             2.3341     1.8350     0.0519 C.ar    
   6 N6             2.2625     0.6539    -0.5469 N.ar    
   7 C7            -1.3810     0.1946    -1.0079 C.2     
   8 N8            -1.4846    -0.5131    -2.1502 N.am    
   9 O9            -2.3535     0.3406    -0.2927 O.2     
  10 C10           -2.7263    -1.2262    -2.4864 C.3     
  11 N11            3.5726     2.3551     0.3909 N.pl3   
  12 C12            4.7235     1.5764     0.2374 C.ar    
  13 C13            4.6315     0.1931     0.2510 C.ar    
  14 C14            5.9596     2.1891     0.0653 C.ar    
  15 C15            7.1001     1.4236    -0.0869 C.ar    
  16 C16            7.0198     0.0458    -0.0695 C.ar    
  17 C17            5.7829    -0.5792     0.0974 C.ar    
  18 C18            6.0559     3.6928     0.0441 C.3     
  19 C19            5.6942    -2.0550     0.1169 C.2     
  20 N20            6.5719    -2.7733     0.8450 N.am    
  21 O21            4.8297    -2.6204    -0.5237 O.2     
  22 C22            7.6743    -2.1109     1.5553 C.3     
  23 C23            6.4409    -4.2331     0.9484 C.3     
  24 C24            6.4158    -4.6221     2.4299 C.3     
  25 C25            7.6545    -4.0514     3.1241 C.3     
  26 C26            7.6328    -2.5281     3.0287 C.3     
  27 C27            7.6505    -4.4609     4.5745 C.ar    
  28 C28            8.6958    -5.2130     5.0805 C.ar    
  29 C29            6.6044    -4.0781     5.3952 C.ar    
  30 C30            6.5947    -4.4490     6.7238 C.ar    
  31 C31            7.6437    -5.2125     7.2399 C.ar    
  32 C32            8.6988    -5.5909     6.4072 C.ar    
  33 C33            7.6402    -5.6012     8.6181 C.1     
  34 N34            7.6374    -5.9095     9.7115 N.1     
  35 C35           -0.3612    -0.5878    -3.0965 C.3     
  36 C36           -0.8759    -0.2223    -4.4929 C.3     
  37 N37           -2.0260    -1.0734    -4.8256 N.3     
  38 C38           -3.1431    -0.8343    -3.9080 C.3     
  39 C39           -2.4418    -0.8748    -6.2205 C.3     
  40 H40            1.0849    -0.8450    -1.3699 H       
  41 H41           -0.9492     2.5879     0.2234 H       
  42 H42            1.2503     3.5221     0.8319 H       
  43 H43           -2.5554    -2.3016    -2.4383 H       
  44 H44           -3.5113    -0.9456    -1.7842 H       
  45 H45            3.6413     3.2594     0.7349 H       
  46 H46            3.6718    -0.2849     0.3805 H       
  47 H47            8.0576     1.9052    -0.2203 H       
  48 H48            7.9134    -0.5488    -0.1895 H       
  49 H49            6.2183     4.0608     1.0571 H       
  50 H50            6.8896     3.9946    -0.5900 H       
  51 H51            5.1297     4.1108    -0.3502 H       
  52 H52            8.6254    -2.4128     1.1167 H       
  53 H53            7.5611    -1.0295     1.4784 H       
  54 H54            5.5141    -4.5515     0.4712 H       
  55 H55            7.2894    -4.7116     0.4593 H       
  56 H56            5.5180    -4.2174     2.8971 H       
  57 H57            6.4157    -5.7083     2.5208 H       
  58 H58            8.5519    -4.4373     2.6406 H       
  59 H59            8.5024    -2.1189     3.5430 H       
  60 H60            6.7228    -2.1474     3.4925 H       
  61 H61            9.5111    -5.5052     4.4353 H       
  62 H62            5.7939    -3.4873     4.9948 H       
  63 H63            5.7777    -4.1493     7.3635 H       
  64 H64            9.5131    -6.1817     6.7999 H       
  65 H65            0.4167     0.1147    -2.7975 H       
  66 H66            0.0410    -1.6008    -3.1081 H       
  67 H67           -1.1818     0.8238    -4.5054 H       
  68 H68           -0.0837    -0.3788    -5.2250 H       
  69 H69           -3.9985    -1.4379    -4.2112 H       
  70 H70           -3.4149     0.2210    -3.9330 H       
  71 H71           -1.6159    -1.1278    -6.8853 H       
  72 H72           -3.2948    -1.5168    -6.4403 H       
  73 H73           -2.7232     0.1674    -6.3709 H       
@<TRIPOS>BOND
   1    1    2 ar
   2    1    6 ar
   3    1   40 1
   4    2    3 ar
   5    2    7 1
   6    3    4 ar
   7    3   41 1
   8    4    5 ar
   9    4   42 1
  10    5    6 ar
  11    5   11 1
  12    7    8 am
  13    7    9 2
  14    8   10 1
  15    8   35 1
  16   10   38 1
  17   10   43 1
  18   10   44 1
  19   11   12 1
  20   11   45 1
  21   12   13 ar
  22   12   14 ar
  23   13   17 ar
  24   13   46 1
  25   14   15 ar
  26   14   18 1
  27   15   16 ar
  28   15   47 1
  29   16   17 ar
  30   16   48 1
  31   17   19 1
  32   18   49 1
  33   18   50 1
  34   18   51 1
  35   19   20 am
  36   19   21 2
  37   20   22 1
  38   20   23 1
  39   22   26 1
  40   22   52 1
  41   22   53 1
  42   23   24 1
  43   23   54 1
  44   23   55 1
  45   24   25 1
  46   24   56 1
  47   24   57 1
  48   25   26 1
  49   25   27 1
  50   25   58 1
  51   26   59 1
  52   26   60 1
  53   27   28 ar
  54   27   29 ar
  55   28   32 ar
  56   28   61 1
  57   29   30 ar
  58   29   62 1
  59   30   31 ar
  60   30   63 1
  61   31   32 ar
  62   31   33 1
  63   32   64 1
  64   33   34 3
  65   35   36 1
  66   35   65 1
  67   35   66 1
  68   36   37 1
  69   36   67 1
  70   36   68 1
  71   37   38 1
  72   37   39 1
  73   38   69 1
  74   38   70 1
  75   39   71 1
  76   39   72 1
  77   39   73 1

#	End of record

