#	Name: ASD04880005
#	Creating user name:	WinNT
#	Creation time:	15. 06. 2019 20:52

#	Modifying user name:	WinNT
#	Modification time:	15. 06. 2019 20:52

#	Program:	/corina/corina34_cracker 3.40 0067  02.08.2006

@<TRIPOS>MOLECULE
ASD04880005
  40   42    0    0    0
SMALL
NO_CHARGES


@<TRIPOS>ATOM
   1 C1            -0.0144     1.2117     0.0087 C.2     
   2 O2             0.0626    -0.0016    -0.0136 O.2     
   3 C3             1.2154     2.0308    -0.0197 C.ar    
   4 C4             1.1302     3.4192    -0.1381 C.ar    
   5 C5             2.2840     4.1787    -0.1636 C.ar    
   6 C6             3.5229     3.5640    -0.0718 C.ar    
   7 C7             3.6119     2.1889     0.0456 C.ar    
   8 C8             2.4667     1.4199     0.0775 C.ar    
   9 F9             2.2046     5.5225    -0.2785 F       
  10 N10           -1.2214     1.8096     0.0538 N.am    
  11 N11           -1.4433     3.1780     0.1950 N.2     
  12 C12           -2.6878     3.5105     0.2114 C.2     
  13 C13           -3.5435     2.2722     0.0678 C.3     
  14 C14           -2.5202     1.1247    -0.0445 C.3     
  15 C15           -3.1992     4.8868     0.3499 C.ar    
  16 C16           -2.3096     5.9556     0.4764 C.ar    
  17 C17           -2.7973     7.2446     0.6054 C.ar    
  18 C18           -4.1673     7.4725     0.6089 C.ar    
  19 C19           -5.0498     6.4157     0.4838 C.ar    
  20 C20           -4.5753     5.1270     0.3492 C.ar    
  21 O21           -1.9350     8.2878     0.7293 O.3     
  22 C22           -2.5074     9.5907     0.8585 C.3     
  23 C23           -1.3901    10.6282     0.9857 C.3     
  24 H24            0.1649     3.8982    -0.2100 H       
  25 H25            4.4224     4.1614    -0.0924 H       
  26 H26            4.5803     1.7160     0.1167 H       
  27 H27            2.5385     0.3465     0.1734 H       
  28 H28           -4.1762     2.1407     0.9456 H       
  29 H29           -4.1494     2.3289    -0.8364 H       
  30 H30           -2.6143     0.6168    -1.0043 H       
  31 H31           -2.6453     0.4199     0.7775 H       
  32 H32           -1.2444     5.7772     0.4739 H       
  33 H33           -4.5447     8.4794     0.7102 H       
  34 H34           -6.1140     6.5997     0.4876 H       
  35 H35           -5.2674     4.3042     0.2475 H       
  36 H36           -3.1100     9.8119    -0.0224 H       
  37 H37           -3.1373     9.6244     1.7474 H       
  38 H38           -0.7874    10.4071     1.8666 H       
  39 H39           -0.7601    10.5946     0.0967 H       
  40 H40           -1.8266    11.6221     1.0842 H       
@<TRIPOS>BOND
   1    1    2 2
   2    1    3 1
   3    1   10 am
   4    3    4 ar
   5    3    8 ar
   6    4    5 ar
   7    4   24 1
   8    5    6 ar
   9    5    9 1
  10    6    7 ar
  11    6   25 1
  12    7    8 ar
  13    7   26 1
  14    8   27 1
  15   10   11 1
  16   10   14 1
  17   11   12 2
  18   12   13 1
  19   12   15 1
  20   13   14 1
  21   13   28 1
  22   13   29 1
  23   14   30 1
  24   14   31 1
  25   15   16 ar
  26   15   20 ar
  27   16   17 ar
  28   16   32 1
  29   17   18 ar
  30   17   21 1
  31   18   19 ar
  32   18   33 1
  33   19   20 ar
  34   19   34 1
  35   20   35 1
  36   21   22 1
  37   22   23 1
  38   22   36 1
  39   22   37 1
  40   23   38 1
  41   23   39 1
  42   23   40 1

#	End of record

