#	Name: ASD01948018
#	Creating user name:	WinNT
#	Creation time:	15. 06. 2019 20:13

#	Modifying user name:	WinNT
#	Modification time:	15. 06. 2019 20:13

#	Program:	/corina/corina34_cracker 3.40 0067  02.08.2006

@<TRIPOS>MOLECULE
ASD01948018
  48   51    0    0    0
SMALL
NO_CHARGES


@<TRIPOS>ATOM
   1 C1            -1.1426     1.6935    -0.2595 C.2     
   2 C2            -0.9336     0.4594    -0.8244 C.2     
   3 C3             0.3396    -0.1217    -0.7978 C.2     
   4 C4             1.3840     0.5685    -0.1927 C.2     
   5 C5             1.1318     1.8168     0.3684 C.2     
   6 N6            -0.1064     2.3529     0.3281 N.am    
   7 N7            -2.3186     2.4117    -0.1998 N.pl3   
   8 C8            -2.0783     3.6799     0.4961 C.3     
   9 C9            -0.5838     3.6433     0.8537 C.3     
  10 O10            2.0405     2.4338     0.9036 O.2     
  11 N11           -2.0591    -0.2594    -1.4633 N.pl3   
  12 O12           -2.1985    -0.2203    -2.6727 O.2     
  13 O13           -2.8457    -0.8898    -0.7796 O.2     
  14 C14            2.7679    -0.0262    -0.1448 C.3     
  15 N15            0.5559    -1.3664    -1.3656 N.pl3   
  16 C16           -0.0949    -2.4932    -0.8503 C.ar    
  17 C17            0.0064    -3.7167    -1.5046 C.ar    
  18 C18           -0.6380    -4.8274    -0.9925 C.ar    
  19 C19           -1.3827    -4.7220     0.1693 C.ar    
  20 C20           -1.4850    -3.5063     0.8209 C.ar    
  21 C21           -0.8382    -2.3936     0.3176 C.ar    
  22 F22            0.7331    -3.8192    -2.6389 F       
  23 Br23          -2.2629    -6.2433     0.8670 Br      
  24 C24           -3.6060     1.9760    -0.7466 C.3     
  25 C25           -3.9125     2.7606    -1.9962 C.ar    
  26 C26           -3.3676     2.3737    -3.2063 C.ar    
  27 C27           -3.6487     3.0934    -4.3525 C.ar    
  28 C28           -4.4751     4.1997    -4.2887 C.ar    
  29 C29           -5.0208     4.5860    -3.0788 C.ar    
  30 C30           -4.7431     3.8638    -1.9333 C.ar    
  31 H31           -2.2888     4.5219    -0.1634 H       
  32 H32           -2.6869     3.7403     1.3983 H       
  33 H33           -0.4487     3.6867     1.9344 H       
  34 H34           -0.0590     4.4677     0.3708 H       
  35 H35            3.2950     0.2052    -1.0704 H       
  36 H36            3.3148     0.3936     0.6995 H       
  37 H37            2.6948    -1.1075    -0.0289 H       
  38 H38            1.1584    -1.4572    -2.1203 H       
  39 H39           -0.5605    -5.7779    -1.4995 H       
  40 H40           -2.0672    -3.4275     1.7271 H       
  41 H41           -0.9147    -1.4462     0.8302 H       
  42 H42           -3.5579     0.9139    -0.9870 H       
  43 H43           -4.3903     2.1464    -0.0090 H       
  44 H44           -2.7219     1.5094    -3.2561 H       
  45 H45           -3.2224     2.7916    -5.2978 H       
  46 H46           -4.6941     4.7625    -5.1841 H       
  47 H47           -5.6661     5.4506    -3.0289 H       
  48 H48           -5.1724     4.1634    -0.9887 H       
@<TRIPOS>BOND
   1    1    2 2
   2    1    6 1
   3    1    7 1
   4    2    3 1
   5    2   11 1
   6    3    4 2
   7    3   15 1
   8    4    5 1
   9    4   14 1
  10    5    6 am
  11    5   10 2
  12    6    9 1
  13    7    8 1
  14    7   24 1
  15    8    9 1
  16    8   31 1
  17    8   32 1
  18    9   33 1
  19    9   34 1
  20   11   12 2
  21   11   13 2
  22   14   35 1
  23   14   36 1
  24   14   37 1
  25   15   16 1
  26   15   38 1
  27   16   17 ar
  28   16   21 ar
  29   17   18 ar
  30   17   22 1
  31   18   19 ar
  32   18   39 1
  33   19   20 ar
  34   19   23 1
  35   20   21 ar
  36   20   40 1
  37   21   41 1
  38   24   25 1
  39   24   42 1
  40   24   43 1
  41   25   26 ar
  42   25   30 ar
  43   26   27 ar
  44   26   44 1
  45   27   28 ar
  46   27   45 1
  47   28   29 ar
  48   28   46 1
  49   29   30 ar
  50   29   47 1
  51   30   48 1

#	End of record

