#	Name: ASD01813311
#	Creating user name:	WinNT
#	Creation time:	15. 06. 2019 19:30

#	Modifying user name:	WinNT
#	Modification time:	15. 06. 2019 19:30

#	Program:	/corina/corina34_cracker 3.40 0067  02.08.2006

@<TRIPOS>MOLECULE
ASD01813311
  53   56    0    0    0
SMALL
NO_CHARGES


@<TRIPOS>ATOM
   1 C1             0.3176     1.6391     0.0836 C.3     
   2 C2             0.1737     0.1417    -0.0056 C.ar    
   3 C3             0.0801    -0.4798    -1.2404 C.ar    
   4 N4            -0.0457    -1.7858    -1.3315 N.ar    
   5 C5            -0.0878    -2.5582    -0.2530 C.ar    
   6 C6             0.0013    -2.0012     1.0208 C.ar    
   7 C7             0.1394    -0.6280     1.1469 C.ar    
   8 C8             0.2448     0.0143     2.5060 C.3     
   9 H9             0.9063     0.8788     2.4490 H       
  10 F10            0.7628    -0.9098     3.4197 F       
  11 C11           -1.1224     0.4570     2.9598 C.ar    
  12 C12           -2.1119    -0.4820     3.1860 C.ar    
  13 C13           -3.3661    -0.0794     3.6015 C.ar    
  14 C14           -3.6326     1.2697     3.7926 C.ar    
  15 C15           -2.6368     2.2102     3.5652 C.ar    
  16 C16           -1.3831     1.8009     3.1547 C.ar    
  17 N17           -4.9046     1.6816     4.2138 N.pl3   
  18 C18           -5.2965     2.9574     4.4314 C.2     
  19 C19           -6.5909     2.9290     4.8250 C.2     
  20 C20           -7.0046     1.5925     4.8491 C.2     
  21 N21           -5.9966     0.8448     4.4780 N.2     
  22 C22           -0.2310    -4.0251    -0.4051 C.2     
  23 O23           -0.2701    -4.7370     0.5789 O.2     
  24 N24           -0.3181    -4.5698    -1.6348 N.am    
  25 C25           -0.4598    -6.0201    -1.7852 C.3     
  26 H26            0.1071    -6.5249    -1.0029 H       
  27 C27           -1.9385    -6.4046    -1.6758 C.3     
  28 C28           -2.0851    -7.9100    -1.9123 C.3     
  29 O29           -1.5481    -8.2440    -3.1938 O.3     
  30 C30           -0.1570    -7.9506    -3.3380 C.3     
  31 C31            0.0691    -6.4471    -3.1579 C.3     
  32 H32           -0.4633    -5.9038    -3.9385 H       
  33 O33            1.4663    -6.1591    -3.2420 O.3     
  34 H34            1.3729     1.8983     0.1682 H       
  35 H35           -0.0985     2.0982    -0.8132 H       
  36 H36           -0.2176     2.0040     0.9603 H       
  37 H37            0.1106     0.1164    -2.1404 H       
  38 H38           -0.0334    -2.6310     1.8975 H       
  39 H39           -1.9040    -1.5313     3.0372 H       
  40 H40           -4.1387    -0.8132     3.7773 H       
  41 H41           -2.8413     3.2603     3.7126 H       
  42 H42           -0.6068     2.5317     2.9819 H       
  43 H43           -4.6860     3.8403     4.3128 H       
  44 H44           -7.1975     3.7865     5.0762 H       
  45 H45           -7.9878     1.2391     5.1229 H       
  46 H46           -0.2870    -4.0015    -2.4203 H       
  47 H47           -2.3072    -6.1546    -0.6810 H       
  48 H48           -2.5128    -5.8604    -2.4256 H       
  49 H49           -1.5438    -8.4540    -1.1383 H       
  50 H50           -3.1400    -8.1823    -1.8781 H       
  51 H51            0.4096    -8.4951    -2.5827 H       
  52 H52            0.1771    -8.2521    -4.3308 H       
  53 H53            1.8683    -6.4042    -4.0866 H       
@<TRIPOS>BOND
   1    1    2 1
   2    1   34 1
   3    1   35 1
   4    1   36 1
   5    2    7 ar
   6    2    3 ar
   7    3    4 ar
   8    3   37 1
   9    4    5 ar
  10    5    6 ar
  11    5   22 1
  12    6    7 ar
  13    6   38 1
  14    7    8 1
  15    8    9 1
  16    8   10 1
  17    8   11 1
  18   11   16 ar
  19   11   12 ar
  20   12   13 ar
  21   12   39 1
  22   13   14 ar
  23   13   40 1
  24   14   15 ar
  25   14   17 1
  26   15   16 ar
  27   15   41 1
  28   16   42 1
  29   17   21 1
  30   17   18 1
  31   18   19 2
  32   18   43 1
  33   19   20 1
  34   19   44 1
  35   20   21 2
  36   20   45 1
  37   22   23 2
  38   22   24 am
  39   24   25 1
  40   24   46 1
  41   25   26 1
  42   25   31 1
  43   25   27 1
  44   27   28 1
  45   27   47 1
  46   27   48 1
  47   28   29 1
  48   28   49 1
  49   28   50 1
  50   29   30 1
  51   30   31 1
  52   30   51 1
  53   30   52 1
  54   31   32 1
  55   31   33 1
  56   33   53 1

#	End of record

