#	Name: ASD05490102
#	Creating user name:	WinNT
#	Creation time:	15. 06. 2019 21:01

#	Modifying user name:	WinNT
#	Modification time:	15. 06. 2019 21:01

#	Program:	/corina/corina34_cracker 3.40 0067  02.08.2006

@<TRIPOS>MOLECULE
ASD05490102
  63   66    0    0    0
SMALL
NO_CHARGES


@<TRIPOS>ATOM
   1 N1            -0.0178     1.4608     0.0101 N.pl3   
   2 O2             4.5582     2.8949    -0.0261 O.3     
   3 N3             2.7941     4.3826    -0.0015 N.ar    
   4 C4             1.4952     4.6638     0.0118 C.ar    
   5 C5             3.2233     3.1292    -0.0123 C.ar    
   6 N6             2.3949     2.0994    -0.0093 N.ar    
   7 C7             1.0795     2.2895     0.0040 C.ar    
   8 C8             0.5781     3.6006     0.0150 C.ar    
   9 N9             1.0558     5.9772     0.0226 N.pl3   
  10 C10           -1.1306     2.2546     0.0190 C.2     
  11 N11           -0.7773     3.5129     0.0270 N.2     
  12 C12            5.4173     4.0368    -0.0280 C.3     
  13 C13            6.8766     3.5771    -0.0442 C.3     
  14 O14            7.1483     2.8975    -1.2715 O.3     
  15 C15            8.4917     2.4246    -1.3889 C.3     
  16 C16            0.0021    -0.0041     0.0020 C.3     
  17 C17            0.0225    -0.5140     1.4200 C.ar    
  18 C18           -1.1667    -0.7631     2.0786 C.ar    
  19 C19            0.0644    -1.4514     4.0268 C.ar    
  20 C20            1.2597    -1.2026     3.3523 C.ar    
  21 C21            1.2327    -0.7362     2.0552 C.ar    
  22 B22            0.0885    -1.9821     5.5042 Du      
  23 O23           -1.0353    -2.2890     6.3416 O.3     
  24 C24           -1.1538    -1.2313     3.3804 C.ar    
  25 F25           -2.3162    -1.4744     4.0245 F       
  26 O26            1.2391    -2.2725     6.3104 O.3     
  27 C27            0.8897    -1.8010     7.6289 C.3     
  28 C28           -0.6569    -1.8122     7.6500 C.3     
  29 C29           -1.1972    -0.3995     7.8807 C.3     
  30 C30           -1.1683    -2.7635     8.7338 C.3     
  31 C31            1.4431    -2.7463     8.6971 C.3     
  32 C32            1.4191    -0.3819     7.8452 C.3     
  33 O33           -2.4073     1.8048     0.0270 O.3     
  34 C34           -3.4422     2.7900     0.0462 C.3     
  35 H35            1.6985     6.7037     0.0206 H       
  36 H36            0.1053     6.1706     0.0323 H       
  37 H37            5.2168     4.6408    -0.9129 H       
  38 H38            5.2335     4.6312     0.8670 H       
  39 H39            7.5315     4.4439     0.0439 H       
  40 H40            7.0539     2.9012     0.7924 H       
  41 H41            9.1802     3.2675    -1.3287 H       
  42 H42            8.7025     1.7248    -0.5803 H       
  43 H43            8.6170     1.9208    -2.3473 H       
  44 H44           -0.8878    -0.3767    -0.5053 H       
  45 H45            0.8920    -0.3525    -0.5222 H       
  46 H46           -2.1074    -0.5916     1.5765 H       
  47 H47            2.2050    -1.3748     3.8455 H       
  48 H48            2.1582    -0.5440     1.5329 H       
  49 H49           -0.8579     0.2549     7.0778 H       
  50 H50           -2.2868    -0.4247     7.8929 H       
  51 H51           -0.8318    -0.0222     8.8359 H       
  52 H52           -0.8023    -2.4360     9.7069 H       
  53 H53           -2.2583    -2.7598     8.7356 H       
  54 H54           -0.8087    -3.7722     8.5310 H       
  55 H55            2.5306    -2.7738     8.6299 H       
  56 H56            1.1490    -2.3906     9.6846 H       
  57 H57            1.0438    -3.7480     8.5379 H       
  58 H58            1.0030     0.2808     7.0863 H       
  59 H59            1.1251    -0.0313     8.8345 H       
  60 H60            2.5065    -0.3841     7.7689 H       
  61 H61           -3.3595     3.4211    -0.8387 H       
  62 H62           -4.4139     2.2962     0.0508 H       
  63 H63           -3.3425     3.4042     0.9411 H       
@<TRIPOS>BOND
   1    1   16 1
   2    1    7 1
   3    1   10 1
   4    2   12 1
   5    2    5 1
   6    3    4 ar
   7    3    5 ar
   8    4    9 1
   9    4    8 ar
  10    5    6 ar
  11    6    7 ar
  12    7    8 ar
  13    8   11 1
  14    9   35 1
  15    9   36 1
  16   10   11 2
  17   10   33 1
  18   12   13 1
  19   12   37 1
  20   12   38 1
  21   13   14 1
  22   13   39 1
  23   13   40 1
  24   14   15 1
  25   15   41 1
  26   15   42 1
  27   15   43 1
  28   16   17 1
  29   16   44 1
  30   16   45 1
  31   17   18 ar
  32   17   21 ar
  33   18   24 ar
  34   18   46 1
  35   19   20 ar
  36   19   22 1
  37   19   24 ar
  38   20   21 ar
  39   20   47 1
  40   21   48 1
  41   22   23 1
  42   22   26 1
  43   23   28 1
  44   24   25 1
  45   26   27 1
  46   27   28 1
  47   27   31 1
  48   27   32 1
  49   28   29 1
  50   28   30 1
  51   29   49 1
  52   29   50 1
  53   29   51 1
  54   30   52 1
  55   30   53 1
  56   30   54 1
  57   31   55 1
  58   31   56 1
  59   31   57 1
  60   32   58 1
  61   32   59 1
  62   32   60 1
  63   33   34 1
  64   34   61 1
  65   34   62 1
  66   34   63 1

#	End of record

