#	Name: ASD03240426
#	Creating user name:	WinNT
#	Creation time:	15. 06. 2019 20:34

#	Modifying user name:	WinNT
#	Modification time:	15. 06. 2019 20:34

#	Program:	/corina/corina34_cracker 3.40 0067  02.08.2006

@<TRIPOS>MOLECULE
ASD03240426
  43   45    0    0    0
SMALL
NO_CHARGES


@<TRIPOS>ATOM
   1 C1             0.3650     1.2186     0.2799 C.ar    
   2 C2            -0.4489     0.9452    -0.8036 C.ar    
   3 C3             3.0284     1.0977     1.7518 C.ar    
   4 C4             2.3057     2.2261     1.4089 C.ar    
   5 C5             1.4734     2.2317     0.1526 C.3     
   6 C6             3.7923     1.0873     2.9014 C.ar    
   7 C7             3.8346     2.2160     3.7168 C.ar    
   8 C8             3.1045     3.3496     3.3670 C.ar    
   9 C9             2.3438     3.3493     2.2152 C.ar    
  10 C10            4.6542     2.2104     4.9548 C.2     
  11 C11           -1.4656     0.0162    -0.6875 C.ar    
  12 C12           -1.6687    -0.6402     0.5134 C.ar    
  13 C13           -0.8539    -0.3662     1.5973 C.ar    
  14 C14            0.1590     0.5672     1.4817 C.ar    
  15 Cl15          -2.9460    -1.8068     0.6601 Cl      
  16 C16            2.3558     1.8745    -1.0452 C.3     
  17 C17            0.8715     3.6230    -0.0543 C.3     
  18 N18           -0.0844     3.9082     1.0241 N.3     
  19 C19           -0.5885     5.2848     0.9303 C.3     
  20 C20            4.7855     3.2407     5.8394 C.2     
  21 N21            5.6131     2.8317     6.8220 N.pl3   
  22 N22            6.0067     1.5172     6.5438 N.2     
  23 C23            5.4328     1.1384     5.4326 C.2     
  24 H24           -0.2905     1.4579    -1.7408 H       
  25 H25            2.9914     0.2217     1.1213 H       
  26 H26            4.3560     0.2056     3.1684 H       
  27 H27            3.1338     4.2272     3.9957 H       
  28 H28            1.7777     4.2278     1.9429 H       
  29 H29           -2.1017    -0.1970    -1.5339 H       
  30 H30           -1.0119    -0.8782     2.5350 H       
  31 H31            0.7951     0.7812     2.3277 H       
  32 H32            2.7846     0.8833    -0.8979 H       
  33 H33            1.7538     1.8785    -1.9539 H       
  34 H34            3.1575     2.6072    -1.1373 H       
  35 H35            1.6666     4.3684    -0.0416 H       
  36 H36            0.3568     3.6571    -1.0145 H       
  37 H37           -0.8439     3.2439     1.0192 H       
  38 H38            0.2450     5.9830     1.0084 H       
  39 H39           -1.0903     5.4236    -0.0273 H       
  40 H40           -1.2941     5.4694     1.7404 H       
  41 H41            4.3121     4.2086     5.7660 H       
  42 H42            5.8887     3.3575     7.5892 H       
  43 H43            5.5422     0.1738     4.9593 H       
@<TRIPOS>BOND
   1    1    2 ar
   2    1    5 1
   3    1   14 ar
   4    2   11 ar
   5    2   24 1
   6    3    4 ar
   7    3    6 ar
   8    3   25 1
   9    4    5 1
  10    4    9 ar
  11    5   17 1
  12    5   16 1
  13    6    7 ar
  14    6   26 1
  15    7    8 ar
  16    7   10 1
  17    8    9 ar
  18    8   27 1
  19    9   28 1
  20   10   20 2
  21   10   23 1
  22   11   12 ar
  23   11   29 1
  24   12   13 ar
  25   12   15 1
  26   13   14 ar
  27   13   30 1
  28   14   31 1
  29   16   32 1
  30   16   33 1
  31   16   34 1
  32   17   18 1
  33   17   35 1
  34   17   36 1
  35   18   19 1
  36   18   37 1
  37   19   38 1
  38   19   39 1
  39   19   40 1
  40   20   21 1
  41   20   41 1
  42   21   22 1
  43   21   42 1
  44   22   23 2
  45   23   43 1

#	End of record

