#	Name: ASD01917735
#	Creating user name:	WinNT
#	Creation time:	15. 06. 2019 20:09

#	Modifying user name:	WinNT
#	Modification time:	15. 06. 2019 20:09

#	Program:	/corina/corina34_cracker 3.40 0067  02.08.2006

@<TRIPOS>MOLECULE
ASD01917735
  45   48    0    0    0
SMALL
NO_CHARGES


@<TRIPOS>ATOM
   1 C1             0.1030     1.2395    -0.7933 C.ar    
   2 C2             0.1374    -0.1458    -0.7619 C.ar    
   3 C3             1.3475    -0.8124    -0.6501 C.ar    
   4 C4             2.5253    -0.1002    -0.5694 C.ar    
   5 C5             2.4973     1.2967    -0.6010 C.ar    
   6 C6             1.2740     1.9630    -0.7138 C.ar    
   7 C7             3.7170     2.0423    -0.5171 C.1     
   8 C8             4.7170     2.6535    -0.4484 C.1     
   9 C9             5.9367     3.3991    -0.3645 C.ar    
  10 C10            5.9270     4.8001    -0.3946 C.ar    
  11 N11            7.0739     5.4498    -0.3142 N.ar    
  12 C12            8.2208     4.7955    -0.2065 C.ar    
  13 N13            8.2732     3.4721    -0.1745 N.ar    
  14 C14            7.1714     2.7475    -0.2442 C.ar    
  15 N15            9.4032     5.5183    -0.1252 N.am    
  16 C16            9.4978     6.8538    -0.1454 C.2     
  17 N17           10.7528     7.3113    -0.0526 N.am    
  18 C18           11.6784     6.1737     0.0467 C.3     
  19 C19           10.7476     4.9380     0.0030 C.3     
  20 C20           12.3326     6.1705     1.4428 C.3     
  21 C21           11.3511     5.3588     2.3235 C.3     
  22 C22           10.8822     4.2423     1.3723 C.3     
  23 H23           12.4096     6.1699    -0.7617 H       
  24 H24           10.9826     4.2766    -0.8310 H       
  25 C25           11.1423     8.7235    -0.0509 C.3     
  26 O26            8.5313     7.5852    -0.2402 O.2     
  27 C27           11.3924     9.1854    -1.4879 C.3     
  28 F28           -1.0134    -0.8492    -0.8401 F       
  29 H29           -0.8426     1.7531    -0.8846 H       
  30 H30            1.3678    -1.8920    -0.6258 H       
  31 H31            3.4675    -0.6207    -0.4816 H       
  32 H32            1.2460     3.0423    -0.7387 H       
  33 H33            4.9959     5.3402    -0.4826 H       
  34 H34            7.2218     1.6690    -0.2175 H       
  35 H35           13.3059     5.6812     1.4065 H       
  36 H36           12.4306     7.1884     1.8201 H       
  37 H37           11.8653     4.9367     3.1869 H       
  38 H38           10.5110     5.9783     2.6376 H       
  39 H39            9.9178     3.8484     1.6930 H       
  40 H40           11.6240     3.4451     1.3255 H       
  41 H41           10.3431     9.3203     0.3886 H       
  42 H42           12.0531     8.8485     0.5347 H       
  43 H43           11.6082    10.2538    -1.4938 H       
  44 H44           12.2411     8.6410    -1.9020 H       
  45 H45           10.5061     8.9904    -2.0917 H       
@<TRIPOS>BOND
   1    1    2 ar
   2    1    6 ar
   3    1   29 1
   4    2    3 ar
   5    2   28 1
   6    3    4 ar
   7    3   30 1
   8    4    5 ar
   9    4   31 1
  10    5    6 ar
  11    5    7 1
  12    6   32 1
  13    7    8 3
  14    8    9 1
  15    9   10 ar
  16    9   14 ar
  17   10   11 ar
  18   10   33 1
  19   11   12 ar
  20   12   13 ar
  21   12   15 1
  22   13   14 ar
  23   14   34 1
  24   15   16 am
  25   15   19 1
  26   16   17 am
  27   16   26 2
  28   17   18 1
  29   17   25 1
  30   18   19 1
  31   18   20 1
  32   18   23 1
  33   19   24 1
  34   19   22 1
  35   20   21 1
  36   20   35 1
  37   20   36 1
  38   21   22 1
  39   21   37 1
  40   21   38 1
  41   22   39 1
  42   22   40 1
  43   25   27 1
  44   25   41 1
  45   25   42 1
  46   27   43 1
  47   27   44 1
  48   27   45 1

#	End of record

