#	Name: ASD02198873
#	Creating user name:	WinNT
#	Creation time:	15. 06. 2019 20:20

#	Modifying user name:	WinNT
#	Modification time:	15. 06. 2019 20:20

#	Program:	/corina/corina34_cracker 3.40 0067  02.08.2006

@<TRIPOS>MOLECULE
ASD02198873
  57   61    0    0    0
SMALL
NO_CHARGES


@<TRIPOS>ATOM
   1 C1            -0.0436     1.5037    -0.1142 C.2     
   2 C2            -0.0738     0.1639     0.0985 C.2     
   3 N3             1.0701    -0.5380     0.2613 N.pl3   
   4 N4             2.2348    -0.0037     0.2270 N.2     
   5 C5             2.4067     1.2858     0.0281 C.2     
   6 C6             1.2213     2.1372    -0.1599 C.2     
   7 C7             0.9781    -1.9170     0.4784 C.ar    
   8 C8             1.5797    -2.4887     1.5989 C.ar    
   9 C9             1.4862    -3.8539     1.8111 C.ar    
  10 C10            0.7945    -4.6498     0.9087 C.ar    
  11 C11            0.1958    -4.0781    -0.2072 C.ar    
  12 C12            0.2826    -2.7171    -0.4187 C.ar    
  13 C13            3.7639     1.8677    -0.0048 C.2     
  14 N14            4.3060     2.6071    -1.0182 N.pl3   
  15 N15            5.6082     2.9581    -0.6408 N.2     
  16 C16            5.8519     2.4588     0.5447 C.2     
  17 C17            4.7196     1.7723     0.9830 C.2     
  18 C18            3.6729     2.9516    -2.2192 C.ar    
  19 C19            2.9102     2.0103    -2.8980 C.ar    
  20 C20            2.2857     2.3502    -4.0827 C.ar    
  21 C21            2.4182     3.6266    -4.5951 C.ar    
  22 C22            3.1789     4.5716    -3.9206 C.ar    
  23 C23            3.8025     4.2359    -2.7294 C.ar    
  24 O24            1.3247     3.3403    -0.3483 O.2     
  25 N25            0.7002    -6.0316     1.1229 N.pl3   
  26 C26            0.0502    -6.9223     0.3129 C.2     
  27 C27            0.1819    -8.1537     0.8495 C.2     
  28 C28            0.9395    -8.0219     2.0329 C.2     
  29 C29            1.2477    -6.7155     2.1739 C.2     
  30 F30           -0.3202    -9.3025     0.3461 F       
  31 F31            1.2953    -9.0215     2.8693 F       
  32 O32            2.2569    -1.7075     2.4810 O.3     
  33 C33            2.8477    -2.3612     3.6059 C.3     
  34 O34            3.3087     5.8265    -4.4260 O.3     
  35 C35            2.6349     6.1037    -5.6553 C.3     
  36 F36            1.2600     5.9060    -5.4884 F       
  37 F37            2.8732     7.4307    -6.0287 F       
  38 F38            3.1118     5.2459    -6.6522 F       
  39 C39            7.1407     2.6068     1.3117 C.3     
  40 H40           -0.9548     2.0676    -0.2487 H       
  41 H41           -1.0238    -0.3482     0.1387 H       
  42 H42            1.9516    -4.2992     2.6780 H       
  43 H43           -0.3417    -4.6993    -0.9083 H       
  44 H44           -0.1836    -2.2750    -1.2868 H       
  45 H45            4.6137     1.2530     1.9240 H       
  46 H46            2.8053     1.0119    -2.4999 H       
  47 H47            1.6932     1.6168    -4.6094 H       
  48 H48            1.9294     3.8892    -5.5217 H       
  49 H49            4.3945     4.9700    -2.2030 H       
  50 H50           -0.4776    -6.6816    -0.5981 H       
  51 H51            1.8222    -6.2837     2.9801 H       
  52 H52            2.0702    -2.8549     4.1889 H       
  53 H53            3.5674    -3.1026     3.2587 H       
  54 H54            3.3562    -1.6249     4.2283 H       
  55 H55            7.0934     3.5015     1.9324 H       
  56 H56            7.2888     1.7323     1.9453 H       
  57 H57            7.9720     2.6935     0.6120 H       
@<TRIPOS>BOND
   1    1    2 2
   2    1    6 1
   3    1   40 1
   4    2    3 1
   5    2   41 1
   6    3    4 1
   7    3    7 1
   8    4    5 2
   9    5    6 1
  10    5   13 1
  11    6   24 2
  12    7    8 ar
  13    7   12 ar
  14    8    9 ar
  15    8   32 1
  16    9   10 ar
  17    9   42 1
  18   10   11 ar
  19   10   25 1
  20   11   12 ar
  21   11   43 1
  22   12   44 1
  23   13   14 1
  24   13   17 2
  25   14   15 1
  26   14   18 1
  27   15   16 2
  28   16   17 1
  29   16   39 1
  30   17   45 1
  31   18   19 ar
  32   18   23 ar
  33   19   20 ar
  34   19   46 1
  35   20   21 ar
  36   20   47 1
  37   21   22 ar
  38   21   48 1
  39   22   23 ar
  40   22   34 1
  41   23   49 1
  42   25   26 1
  43   25   29 1
  44   26   27 2
  45   26   50 1
  46   27   28 1
  47   27   30 1
  48   28   29 2
  49   28   31 1
  50   29   51 1
  51   32   33 1
  52   33   52 1
  53   33   53 1
  54   33   54 1
  55   34   35 1
  56   35   36 1
  57   35   37 1
  58   35   38 1
  59   39   55 1
  60   39   56 1
  61   39   57 1

#	End of record

