#	Name: ASD06590022
#	Creating user name:	WinNT
#	Creation time:	15. 06. 2019 21:06

#	Modifying user name:	WinNT
#	Modification time:	15. 06. 2019 21:06

#	Program:	/corina/corina34_cracker 3.40 0067  02.08.2006

@<TRIPOS>MOLECULE
ASD06590022
 396  403    0    0    0
SMALL
NO_CHARGES


@<TRIPOS>ATOM
   1 C1            -5.9720    15.2544   -11.1937 C.2     
   2 O2            -5.7156    14.0745   -11.3077 O.2     
   3 N3            -3.6241    15.6882   -11.6278 N.am    
   4 C4            -4.9600    16.2893   -11.6132 C.3     
   5 C5            -5.3043    16.8010   -13.0134 C.3     
   6 C6            -6.6249    17.5722   -12.9641 C.3     
   7 C7            -6.4443    18.8397   -12.1266 C.3     
   8 C8            -7.0452    17.9550   -14.3846 C.3     
   9 C9            -9.5515    15.2804   -10.4525 C.2     
  10 O10           -9.6558    16.4580   -10.7233 O.2     
  11 N11           -7.1641    15.6401   -10.6971 N.am    
  12 C12           -8.1892    14.6389   -10.3924 C.3     
  13 C13           -7.9519    14.0766    -8.9894 C.3     
  14 C14           -6.6438    13.3287    -8.9626 C.2     
  15 C15           -5.6212    13.5530    -8.1155 C.2     
  16 N16           -4.6378    12.6563    -8.4357 N.pl3   
  17 C17           -5.0940    11.9148    -9.4680 C.2     
  18 N18           -6.2962    12.3193    -9.7745 N.2     
  19 C19          -12.9376    14.3933    -9.3986 C.2     
  20 O20          -12.5529    13.4157    -8.7927 O.2     
  21 N21          -10.6540    14.5455   -10.2055 N.am    
  22 C22          -11.9783    15.1692   -10.2640 C.3     
  23 C23          -12.4796    15.1671   -11.7096 C.3     
  24 O24          -12.6766    13.8199   -12.1435 O.3     
  25 C25          -16.5628    14.2420    -8.9533 C.2     
  26 O26          -16.7666    14.9520    -9.9152 O.2     
  27 N27          -14.2230    14.7858    -9.2981 N.am    
  28 C28          -15.1555    14.0316    -8.4568 C.3     
  29 C29          -15.0467    14.5194    -7.0107 C.3     
  30 C30          -13.6549    14.1927    -6.4657 C.3     
  31 C31          -13.5026    14.7894    -5.0651 C.3     
  32 C32          -13.4782    12.6745    -6.3952 C.3     
  33 C33          -19.9331    13.6241    -7.6796 C.2     
  34 O34          -19.5223    13.3249    -6.5784 O.2     
  35 N35          -17.5947    13.6411    -8.3285 N.am    
  36 C36          -18.9627    13.8456    -8.8111 C.3     
  37 C37          -19.2592    12.8547    -9.9386 C.3     
  38 C38          -19.1122    11.4253    -9.4131 C.3     
  39 C39          -19.5288    10.4358   -10.5031 C.3     
  40 C40          -18.2741    13.0796   -11.0874 C.3     
  41 C41          -23.5421    13.1453    -7.3506 C.2     
  42 O42          -23.6953    13.0509    -8.5500 O.2     
  43 N43          -21.2573    13.7586    -7.8913 N.am    
  44 C44          -22.2006    13.5432    -6.7913 C.3     
  45 C45          -22.3471    14.8352    -5.9848 C.3     
  46 C46          -21.0336    15.1669    -5.3246 C.ar    
  47 C47          -20.1088    15.9556    -5.9830 C.ar    
  48 C48          -18.9040    16.2599    -5.3774 C.ar    
  49 C49          -18.6242    15.7757    -4.1132 C.ar    
  50 C50          -19.5494    14.9878    -3.4544 C.ar    
  51 C51          -20.7560    14.6871    -4.0582 C.ar    
  52 C52          -26.9583    12.8723    -6.0786 C.2     
  53 O53          -26.6688    13.4031    -5.0272 O.2     
  54 N54          -24.5718    12.8944    -6.5180 N.am    
  55 C55          -25.8760    12.5076    -7.0617 C.3     
  56 C56          -25.8984    10.9977    -7.3079 C.3     
  57 C57          -24.8844    10.6435    -8.3975 C.3     
  58 S58          -24.9110     8.8533    -8.6895 S.3     
  59 C59          -23.6654     8.6334    -9.9897 C.3     
  60 C60          -30.4974    12.0743    -5.6301 C.2     
  61 O61          -30.4741    11.2280    -6.4984 O.2     
  62 N62          -28.2481    12.6086    -6.3676 N.am    
  63 C63          -29.3002    12.9632    -5.4119 C.3     
  64 C64          -29.7054    14.4241    -5.6181 C.3     
  65 C65          -33.9990    12.0549    -4.5804 C.2     
  66 O66          -33.9192    13.1656    -4.0999 O.2     
  67 N67          -31.5941    12.2199    -4.8602 N.am    
  68 C68          -32.7579    11.3558    -5.0724 C.3     
  69 C69          -32.5695    10.0480    -4.3009 C.3     
  70 C70          -31.4003     9.2901    -4.8749 C.ar    
  71 C71          -30.1286     9.4988    -4.3748 C.ar    
  72 C72          -29.0561     8.8036    -4.9014 C.ar    
  73 C73          -29.2554     7.8994    -5.9278 C.ar    
  74 C74          -30.5272     7.6900    -6.4273 C.ar    
  75 C75          -31.6003     8.3820    -5.8978 C.ar    
  76 C76          -37.4480    11.1006    -3.8344 C.2     
  77 O77          -37.2079     9.9188    -3.9634 O.2     
  78 N78          -35.1976    11.4459    -4.6744 N.am    
  79 C79          -36.4041    12.1255    -4.1961 C.3     
  80 C80          -36.9459    13.0384    -5.2980 C.3     
  81 C81          -35.9521    14.1372    -5.5738 C.ar    
  82 C82          -34.9682    13.9559    -6.5277 C.ar    
  83 C83          -34.0566    14.9638    -6.7807 C.ar    
  84 C84          -34.1292    16.1532    -6.0800 C.ar    
  85 C85          -35.1136    16.3349    -5.1267 C.ar    
  86 C86          -36.0279    15.3286    -4.8768 C.ar    
  87 C87          -41.0331    11.1207    -3.1202 C.2     
  88 O88          -41.1500    12.2805    -3.4552 O.2     
  89 N89          -38.6485    11.4973    -3.3676 N.am    
  90 C90          -39.6634    10.5010    -3.0160 C.3     
  91 C91          -39.4295    10.0187    -1.5829 C.3     
  92 O92          -39.6346    11.1036    -0.6758 O.3     
  93 C93          -44.4156    10.2486    -2.0428 C.2     
  94 O94          -44.0233     9.3103    -1.3820 O.2     
  95 N95          -42.1281    10.3862    -2.8411 N.am    
  96 C96          -43.4596    10.9887    -2.9425 C.3     
  97 C97          -43.9499    10.9019    -4.3892 C.3     
  98 C98          -43.0501    11.7557    -5.2847 C.3     
  99 C99          -43.5331    11.6702    -6.7097 C.2     
 100 O100         -44.4980    10.9955    -6.9811 O.2     
 101 O101         -42.8913    12.3436    -7.6774 O.3     
 102 C102         -48.0419    10.0751    -1.6146 C.2     
 103 O103         -48.2474    10.7293    -2.6150 O.2     
 104 N104         -45.7066    10.6295    -1.9724 N.am    
 105 C105         -46.6359     9.9101    -1.0978 C.3     
 106 C106         -46.5440    10.4769     0.3203 C.3     
 107 C107         -45.1524    10.1981     0.8918 C.3     
 108 C108         -45.0605    10.7649     2.3099 C.3     
 109 C109         -43.6688    10.4861     2.8814 C.3     
 110 N110         -43.5806    11.0303     4.2430 N.3     
 111 C111         -51.4137     9.4839    -0.3322 C.2     
 112 O112         -51.0075     9.2501     0.7864 O.2     
 113 N113         -49.0709     9.4958    -0.9651 N.am    
 114 C114         -50.4377     9.6562    -1.4675 C.3     
 115 C115         -50.7134     8.6019    -2.5414 C.3     
 116 C116         -49.8066     8.8535    -3.7478 C.3     
 117 C117         -50.0822     7.7992    -4.8217 C.3     
 118 C118         -49.1754     8.0508    -6.0281 C.3     
 119 N119         -49.4401     7.0386    -7.0592 N.3     
 120 C120         -55.0189     8.9773    -0.0023 C.2     
 121 O121         -55.1618     8.8160    -1.1958 O.2     
 122 N122         -52.7378     9.5896    -0.5600 N.am    
 123 C123         -53.6866     9.4222     0.5437 C.3     
 124 C124         -53.8552    10.7539     1.2778 C.3     
 125 C125         -52.5511    11.1378     1.9280 C.ar    
 126 C126         -51.6319    11.9017     1.2328 C.ar    
 127 C127         -50.4354    12.2545     1.8264 C.ar    
 128 C128         -50.1567    11.8421     3.1214 C.ar    
 129 O129         -48.9806    12.1883     3.7077 O.3     
 130 C130         -51.0809    11.0761     3.8169 C.ar    
 131 C131         -52.2781    10.7303     3.2207 C.ar    
 132 C132         -58.4100     8.4588     1.3224 C.2     
 133 O133         -58.1353     8.8074     2.4511 O.2     
 134 N134         -56.0516     8.7586     0.8357 N.am    
 135 C135         -57.3110     8.2163     0.3202 C.3     
 136 C136         -57.1597     6.7123     0.0833 C.3     
 137 C137         -58.4171     6.1750    -0.6030 C.3     
 138 C138         -58.5649     6.8266    -1.9794 C.3     
 139 C139         -58.3002     4.6583    -0.7667 C.3     
 140 C140         -61.9958     7.7912     1.5670 C.2     
 141 O141         -61.9768     7.0370     0.6175 O.2     
 142 N142         -59.6981     8.2883     0.9645 N.am    
 143 C143         -60.7694     8.5947     1.9157 C.3     
 144 C144         -61.1008    10.0868     1.8473 C.3     
 145 C145         -59.9123    10.8873     2.3140 C.2     
 146 C146         -59.7016    11.3543     3.5547 C.2     
 147 N147         -58.5155    12.0350     3.6018 N.pl3   
 148 C148         -57.9189    12.0223     2.3610 C.ar    
 149 C149         -56.7319    12.5498     1.8637 C.ar    
 150 C150         -56.4018    12.3627     0.5391 C.ar    
 151 C151         -57.2424    11.6522    -0.3063 C.ar    
 152 C152         -58.4137    11.1257     0.1611 C.ar    
 153 C153         -58.7648    11.2978     1.5012 C.ar    
 154 C154         -65.4077     7.4450     2.9499 C.2     
 155 O155         -65.2161     8.2435     3.8425 O.2     
 156 N156         -63.1136     7.9109     2.3104 N.am    
 157 C157         -64.3058     7.1298     1.9714 C.3     
 158 C158         -68.6337     5.9834     3.8555 C.2     
 159 O159         -68.4395     4.9961     3.1784 O.2     
 160 N160         -66.6062     6.8396     2.8331 N.am    
 161 C161         -67.6775     7.1460     3.7842 C.3     
 162 C162         -68.4282     8.3963     3.3215 C.3     
 163 C163         -67.5021     9.5842     3.3677 C.ar    
 164 C164         -66.7428     9.9122     2.2602 C.ar    
 165 C165         -65.8933    11.0019     2.3026 C.ar    
 166 C166         -65.8035    11.7639     3.4525 C.ar    
 167 C167         -66.5635    11.4364     4.5598 C.ar    
 168 C168         -67.4162    10.3493     4.5158 C.ar    
 169 C169         -71.6516     5.0285     3.6353 C.2     
 170 O170         -71.6049     5.9608     2.8682 O.2     
 171 N171         -69.7047     6.0408     4.6716 N.am    
 172 C172         -70.6343     4.9107     4.7409 C.3     
 173 C173         -71.3483     4.9198     6.0940 C.3     
 174 C174         -70.3105     4.9259     7.2183 C.3     
 175 O175         -72.1653     6.0879     6.1936 O.3     
 176 O176         -72.6095     4.0976     3.5028 O.3     
 177 C177          -2.5380    16.4544   -11.4048 C.2     
 178 O178          -2.6576    17.6550   -11.2824 O.2     
 179 C179          15.8651    18.8853    -8.8343 C.3     
 180 C180          14.4811    19.5302    -8.9329 C.3     
 181 C181          13.4308    18.4473    -9.1877 C.3     
 182 C182          12.0469    19.0922    -9.2863 C.3     
 183 C183          10.9965    18.0092    -9.5410 C.3     
 184 C184           9.6126    18.6542    -9.6396 C.3     
 185 C185           8.5623    17.5712    -9.8943 C.3     
 186 C186           7.1783    18.2161    -9.9929 C.3     
 187 C187           6.1280    17.1332   -10.2477 C.3     
 188 C188           4.7441    17.7781   -10.3463 C.3     
 189 C189           3.6937    16.6952   -10.6010 C.3     
 190 C190           2.3098    17.3401   -10.6996 C.3     
 191 C191           1.2594    16.2572   -10.9544 C.3     
 192 C192          -0.1245    16.9021   -11.0530 C.3     
 193 C193          -1.1748    15.8191   -11.3077 C.3     
 194 H194          -3.5213    14.7388   -11.7979 H       
 195 H195          -4.9768    17.1205   -10.9083 H       
 196 H196          -4.5110    17.4611   -13.3643 H       
 197 H197          -5.4022    15.9562   -13.6951 H       
 198 H198          -7.3949    16.9457   -12.5138 H       
 199 H199          -7.4000    19.3566   -12.0390 H       
 200 H200          -6.0844    18.5708   -11.1335 H       
 201 H201          -5.7200    19.4949   -12.6105 H       
 202 H202          -7.1738    17.0520   -14.9813 H       
 203 H203          -7.9860    18.5044   -14.3495 H       
 204 H204          -6.2752    18.5815   -14.8349 H       
 205 H205          -7.3433    16.5806   -10.5414 H       
 206 H206          -8.1357    13.8305   -11.1216 H       
 207 H207          -7.9170    14.8955    -8.2708 H       
 208 H208          -8.7637    13.3980    -8.7277 H       
 209 H209          -5.5840    14.2974    -7.3340 H       
 210 H210          -3.7744    12.5697    -8.0020 H       
 211 H211          -4.5547    11.1166    -9.9564 H       
 212 H212         -10.5705    13.6037    -9.9889 H       
 213 H213         -11.9127    16.1958    -9.9036 H       
 214 H214         -13.4234    15.7093   -11.7676 H       
 215 H215         -11.7425    15.6511   -12.3504 H       
 216 H216         -12.9947    13.7424   -13.0534 H       
 217 H217         -14.5307    15.5677    -9.7827 H       
 218 H218         -14.9091    12.9708    -8.5020 H       
 219 H219         -15.2060    15.5972    -6.9779 H       
 220 H220         -15.8014    14.0218    -6.4017 H       
 221 H221         -12.8977    14.6163    -7.1254 H       
 222 H222         -14.2598    14.3658    -4.4054 H       
 223 H223         -12.5111    14.5567    -4.6768 H       
 224 H224         -13.6285    15.8710    -5.1154 H       
 225 H225         -14.2355    12.2509    -5.7354 H       
 226 H226         -13.5867    12.2494    -7.3930 H       
 227 H227         -12.4867    12.4418    -6.0069 H       
 228 H228         -17.4317    13.0732    -7.5592 H       
 229 H229         -19.0675    14.8639    -9.1855 H       
 230 H230         -20.2771    13.0069   -10.2977 H       
 231 H231         -18.0734    11.2450    -9.1364 H       
 232 H232         -19.7494    11.2923    -8.5388 H       
 233 H233         -18.8917    10.5688   -11.3774 H       
 234 H234         -19.4241     9.4175   -10.1287 H       
 235 H235         -20.5676    10.6162   -10.7797 H       
 236 H236         -18.4853    12.3737   -11.8906 H       
 237 H237         -18.3789    14.0979   -11.4618 H       
 238 H238         -17.2563    12.9274   -10.7283 H       
 239 H239         -21.5858    13.9979    -8.7721 H       
 240 H240         -21.8276    12.7504    -6.1428 H       
 241 H241         -22.6346    15.6486    -6.6509 H       
 242 H242         -23.1140    14.7021    -5.2218 H       
 243 H243         -20.3274    16.3338    -6.9707 H       
 244 H244         -18.1812    16.8755    -5.8921 H       
 245 H245         -17.6827    16.0129    -3.6403 H       
 246 H246         -19.3307    14.6093    -2.4668 H       
 247 H247         -21.4804    14.0745    -3.5421 H       
 248 H248         -24.4493    12.9699    -5.5587 H       
 249 H249         -26.0476    13.0316    -8.0019 H       
 250 H250         -25.6393    10.4755    -6.3869 H       
 251 H251         -26.8959    10.6965    -7.6280 H       
 252 H252         -25.1436    11.1657    -9.3186 H       
 253 H253         -23.8870    10.9447    -8.0774 H       
 254 H254         -23.9550     9.2059   -10.8709 H       
 255 H255         -22.6984     8.9849    -9.6297 H       
 256 H256         -23.5942     7.5773   -10.2498 H       
 257 H257         -28.4796    12.1841    -7.2085 H       
 258 H258         -28.9285    12.8292    -4.3960 H       
 259 H259         -30.4882    14.6880    -4.9070 H       
 260 H260         -28.8394    15.0671    -5.4603 H       
 261 H261         -30.0771    14.5581    -6.6340 H       
 262 H262         -31.6128    12.8968    -4.1657 H       
 263 H263         -32.8604    11.1388    -6.1356 H       
 264 H264         -32.3785    10.2699    -3.2509 H       
 265 H265         -33.4720     9.4427    -4.3860 H       
 266 H266         -29.9729    10.2053    -3.5729 H       
 267 H267         -28.0625     8.9672    -4.5111 H       
 268 H268         -28.4173     7.3568    -6.3397 H       
 269 H269         -30.6828     6.9838    -7.2295 H       
 270 H270         -32.5945     8.2157    -6.2855 H       
 271 H271         -35.2614    10.5575    -5.0587 H       
 272 H272         -36.1607    12.7221    -3.3170 H       
 273 H273         -37.1057    12.4567    -6.2059 H       
 274 H274         -37.8908    13.4757    -4.9756 H       
 275 H275         -34.9115    13.0266    -7.0751 H       
 276 H276         -33.2875    14.8219    -7.5254 H       
 277 H277         -33.4165    16.9404    -6.2771 H       
 278 H278         -35.1701    17.2640    -4.5790 H       
 279 H279         -36.7993    15.4719    -4.1346 H       
 280 H280         -38.8406    12.4425    -3.2644 H       
 281 H281         -39.5943     9.6551    -3.6999 H       
 282 H282         -40.1282     9.2146    -1.3516 H       
 283 H283         -38.4079     9.6515    -1.4853 H       
 284 H284         -39.5030    10.8697     0.2533 H       
 285 H285         -42.0346     9.4587    -2.5732 H       
 286 H286         -43.4095    12.0341    -2.6379 H       
 287 H287         -43.9156     9.8647    -4.7228 H       
 288 H288         -44.9746    11.2688    -4.4481 H       
 289 H289         -43.0844    12.7929    -4.9511 H       
 290 H290         -42.0254    11.3888    -5.2258 H       
 291 H291         -43.2381    12.2578    -8.5760 H       
 292 H292         -46.0203    11.3799    -2.5009 H       
 293 H293         -46.3759     8.8516    -1.0836 H       
 294 H294         -46.7169    11.5527     0.2935 H       
 295 H295         -47.2970    10.0034     0.9503 H       
 296 H296         -44.9794     9.1222     0.9186 H       
 297 H297         -44.3994    10.6715     0.2618 H       
 298 H298         -45.2334    11.8407     2.2831 H       
 299 H299         -45.8135    10.2914     2.9400 H       
 300 H300         -43.4959     9.4102     2.9082 H       
 301 H301         -42.9158    10.9596     2.2514 H       
 302 H302         -44.3099    10.6547     4.8305 H       
 303 H303         -42.6701    10.8588     4.6426 H       
 304 H304         -48.9066     8.9726    -0.1650 H       
 305 H305         -50.5523    10.6513    -1.8973 H       
 306 H306         -50.5127     7.6099    -2.1367 H       
 307 H307         -51.7564     8.6635    -2.8518 H       
 308 H308         -50.0072     9.8455    -4.1525 H       
 309 H309         -48.7635     8.7919    -3.4374 H       
 310 H310         -49.8816     6.8072    -4.4170 H       
 311 H311         -51.1253     7.8608    -5.1321 H       
 312 H312         -49.3761     9.0428    -6.4328 H       
 313 H313         -48.1324     7.9892    -5.7177 H       
 314 H314         -50.4155     7.0320    -7.3175 H       
 315 H315         -48.8531     7.1832    -7.8670 H       
 316 H316         -53.0627     9.7766    -1.4546 H       
 317 H317         -53.3087     8.6705     1.2368 H       
 318 H318         -54.1478    11.5263     0.5665 H       
 319 H319         -54.6261    10.6526     2.0417 H       
 320 H320         -51.8493    12.2225     0.2247 H       
 321 H321         -49.7174    12.8506     1.2828 H       
 322 H322         -49.0138    13.0245     4.1922 H       
 323 H323         -50.8661    10.7535     4.8250 H       
 324 H324         -52.9998    10.1376     3.7633 H       
 325 H325         -55.9609     8.9604     1.7801 H       
 326 H326         -57.5611     8.7087    -0.6195 H       
 327 H327         -56.2929     6.5300    -0.5521 H       
 328 H328         -57.0227     6.2060     1.0387 H       
 329 H329         -59.2910     6.4086     0.0052 H       
 330 H330         -59.4969     6.4976    -2.4390 H       
 331 H331         -58.5774     7.9109    -1.8687 H       
 332 H332         -57.7256     6.5356    -2.6112 H       
 333 H333         -58.1950     4.1941     0.2139 H       
 334 H334         -59.1961     4.2755    -1.2556 H       
 335 H335         -57.4264     4.4248    -1.3750 H       
 336 H336         -59.9159     7.9627     0.0771 H       
 337 H337         -60.4433     8.3408     2.9243 H       
 338 H338         -61.3412    10.3589     0.8195 H       
 339 H339         -61.9562    10.2988     2.4888 H       
 340 H340         -60.3695    11.2139     4.3917 H       
 341 H341         -58.1496    12.4628     4.3917 H       
 342 H342         -56.0713    13.1046     2.5136 H       
 343 H343         -55.4798    12.7735     0.1548 H       
 344 H344         -56.9688    11.5146    -1.3420 H       
 345 H345         -59.0630    10.5742    -0.5027 H       
 346 H346         -63.1287     8.5142     3.0698 H       
 347 H347         -64.0697     6.0668     2.0202 H       
 348 H348         -64.6318     7.3838     0.9628 H       
 349 H349         -66.7594     6.2010     2.1192 H       
 350 H350         -67.2480     7.3242     4.7701 H       
 351 H351         -68.7818     8.2507     2.3007 H       
 352 H352         -69.2793     8.5732     3.9791 H       
 353 H353         -66.8130     9.3169     1.3618 H       
 354 H354         -65.2995    11.2577     1.4375 H       
 355 H355         -65.1392    12.6148     3.4859 H       
 356 H356         -66.4931    12.0316     5.4583 H       
 357 H357         -68.0128    10.0957     5.3797 H       
 358 H358         -69.8600     6.8305     5.2132 H       
 359 H359         -70.0814     3.9781     4.6281 H       
 360 H360         -71.9731     4.0309     6.1812 H       
 361 H361         -69.6857     5.8148     7.1311 H       
 362 H362         -70.8192     4.9324     8.1823 H       
 363 H363         -69.6873     4.0349     7.1423 H       
 364 H364         -71.6745     6.9182     6.1244 H       
 365 H365         -73.2394     4.2159     2.7787 H       
 366 H366          16.6134    19.6568    -8.6528 H       
 367 H367          15.8746    18.1694    -8.0124 H       
 368 H368          16.0932    18.3702    -9.7675 H       
 369 H369          14.2530    20.0453    -7.9998 H       
 370 H370          14.4716    20.2461    -9.7548 H       
 371 H371          13.6589    17.9322   -10.1208 H       
 372 H372          13.4403    17.7314    -8.3658 H       
 373 H373          11.8187    19.6073    -8.3531 H       
 374 H374          12.0374    19.8081   -10.1081 H       
 375 H375          11.2247    17.4942   -10.4741 H       
 376 H376          11.0060    17.2933    -8.7191 H       
 377 H377           9.3845    19.1692    -8.7065 H       
 378 H378           9.6031    19.3700   -10.4615 H       
 379 H379           8.7904    17.0561   -10.8275 H       
 380 H380           8.5718    16.8553    -9.0725 H       
 381 H381           6.9502    18.7312    -9.0598 H       
 382 H382           7.1688    18.9320   -10.8148 H       
 383 H383           6.3561    16.6181   -11.1808 H       
 384 H384           6.1375    16.4173    -9.4258 H       
 385 H385           4.5159    18.2932    -9.4131 H       
 386 H386           4.7345    18.4940   -11.1682 H       
 387 H387           3.9218    16.1801   -11.5342 H       
 388 H388           3.7032    15.9793    -9.7791 H       
 389 H389           2.0817    17.8552    -9.7665 H       
 390 H390           2.3003    18.0560   -11.5215 H       
 391 H391           1.4876    15.7421   -11.8875 H       
 392 H392           1.2689    15.5413   -10.1325 H       
 393 H393          -0.3526    17.4172   -10.1198 H       
 394 H394          -0.1340    17.6180   -11.8749 H       
 395 H395          -1.1653    15.1032   -10.4858 H       
 396 H396          -0.9467    15.3041   -12.2409 H       
@<TRIPOS>BOND
   1    1    2 2
   2    1    4 1
   3    1   11 am
   4    3  177 am
   5    3    4 1
   6    3  194 1
   7    4    5 1
   8    4  195 1
   9    5    6 1
  10    5  196 1
  11    5  197 1
  12    6    7 1
  13    6    8 1
  14    6  198 1
  15    7  199 1
  16    7  200 1
  17    7  201 1
  18    8  202 1
  19    8  203 1
  20    8  204 1
  21    9   10 2
  22    9   12 1
  23    9   21 am
  24   11   12 1
  25   11  205 1
  26   12   13 1
  27   12  206 1
  28   13   14 1
  29   13  207 1
  30   13  208 1
  31   14   15 2
  32   14   18 1
  33   15   16 1
  34   15  209 1
  35   16   17 1
  36   16  210 1
  37   17   18 2
  38   17  211 1
  39   19   20 2
  40   19   22 1
  41   19   27 am
  42   21   22 1
  43   21  212 1
  44   22   23 1
  45   22  213 1
  46   23   24 1
  47   23  214 1
  48   23  215 1
  49   24  216 1
  50   25   26 2
  51   25   28 1
  52   25   35 am
  53   27   28 1
  54   27  217 1
  55   28   29 1
  56   28  218 1
  57   29   30 1
  58   29  219 1
  59   29  220 1
  60   30   31 1
  61   30   32 1
  62   30  221 1
  63   31  222 1
  64   31  223 1
  65   31  224 1
  66   32  225 1
  67   32  226 1
  68   32  227 1
  69   33   34 2
  70   33   36 1
  71   33   43 am
  72   35   36 1
  73   35  228 1
  74   36   37 1
  75   36  229 1
  76   37   38 1
  77   37   40 1
  78   37  230 1
  79   38   39 1
  80   38  231 1
  81   38  232 1
  82   39  233 1
  83   39  234 1
  84   39  235 1
  85   40  236 1
  86   40  237 1
  87   40  238 1
  88   41   42 2
  89   41   44 1
  90   41   54 am
  91   43   44 1
  92   43  239 1
  93   44   45 1
  94   44  240 1
  95   45   46 1
  96   45  241 1
  97   45  242 1
  98   46   47 ar
  99   46   51 ar
 100   47   48 ar
 101   47  243 1
 102   48   49 ar
 103   48  244 1
 104   49   50 ar
 105   49  245 1
 106   50   51 ar
 107   50  246 1
 108   51  247 1
 109   52   53 2
 110   52   55 1
 111   52   62 am
 112   54   55 1
 113   54  248 1
 114   55   56 1
 115   55  249 1
 116   56   57 1
 117   56  250 1
 118   56  251 1
 119   57   58 1
 120   57  252 1
 121   57  253 1
 122   58   59 1
 123   59  254 1
 124   59  255 1
 125   59  256 1
 126   60   61 2
 127   60   63 1
 128   60   67 am
 129   62   63 1
 130   62  257 1
 131   63   64 1
 132   63  258 1
 133   64  259 1
 134   64  260 1
 135   64  261 1
 136   65   66 2
 137   65   68 1
 138   65   78 am
 139   67   68 1
 140   67  262 1
 141   68   69 1
 142   68  263 1
 143   69   70 1
 144   69  264 1
 145   69  265 1
 146   70   71 ar
 147   70   75 ar
 148   71   72 ar
 149   71  266 1
 150   72   73 ar
 151   72  267 1
 152   73   74 ar
 153   73  268 1
 154   74   75 ar
 155   74  269 1
 156   75  270 1
 157   76   77 2
 158   76   79 1
 159   76   89 am
 160   78   79 1
 161   78  271 1
 162   79   80 1
 163   79  272 1
 164   80   81 1
 165   80  273 1
 166   80  274 1
 167   81   82 ar
 168   81   86 ar
 169   82   83 ar
 170   82  275 1
 171   83   84 ar
 172   83  276 1
 173   84   85 ar
 174   84  277 1
 175   85   86 ar
 176   85  278 1
 177   86  279 1
 178   87   88 2
 179   87   90 1
 180   87   95 am
 181   89   90 1
 182   89  280 1
 183   90   91 1
 184   90  281 1
 185   91   92 1
 186   91  282 1
 187   91  283 1
 188   92  284 1
 189   93   94 2
 190   93   96 1
 191   93  104 am
 192   95   96 1
 193   95  285 1
 194   96   97 1
 195   96  286 1
 196   97   98 1
 197   97  287 1
 198   97  288 1
 199   98   99 1
 200   98  289 1
 201   98  290 1
 202   99  100 2
 203   99  101 1
 204  101  291 1
 205  102  103 2
 206  102  105 1
 207  102  113 am
 208  104  105 1
 209  104  292 1
 210  105  106 1
 211  105  293 1
 212  106  107 1
 213  106  294 1
 214  106  295 1
 215  107  108 1
 216  107  296 1
 217  107  297 1
 218  108  109 1
 219  108  298 1
 220  108  299 1
 221  109  110 1
 222  109  300 1
 223  109  301 1
 224  110  302 1
 225  110  303 1
 226  111  112 2
 227  111  114 1
 228  111  122 am
 229  113  114 1
 230  113  304 1
 231  114  115 1
 232  114  305 1
 233  115  116 1
 234  115  306 1
 235  115  307 1
 236  116  117 1
 237  116  308 1
 238  116  309 1
 239  117  118 1
 240  117  310 1
 241  117  311 1
 242  118  119 1
 243  118  312 1
 244  118  313 1
 245  119  314 1
 246  119  315 1
 247  120  121 2
 248  120  123 1
 249  120  134 am
 250  122  123 1
 251  122  316 1
 252  123  124 1
 253  123  317 1
 254  124  125 1
 255  124  318 1
 256  124  319 1
 257  125  126 ar
 258  125  131 ar
 259  126  127 ar
 260  126  320 1
 261  127  128 ar
 262  127  321 1
 263  128  129 1
 264  128  130 ar
 265  129  322 1
 266  130  131 ar
 267  130  323 1
 268  131  324 1
 269  132  133 2
 270  132  135 1
 271  132  142 am
 272  134  135 1
 273  134  325 1
 274  135  136 1
 275  135  326 1
 276  136  137 1
 277  136  327 1
 278  136  328 1
 279  137  138 1
 280  137  139 1
 281  137  329 1
 282  138  330 1
 283  138  331 1
 284  138  332 1
 285  139  333 1
 286  139  334 1
 287  139  335 1
 288  140  141 2
 289  140  143 1
 290  140  156 am
 291  142  143 1
 292  142  336 1
 293  143  144 1
 294  143  337 1
 295  144  145 1
 296  144  338 1
 297  144  339 1
 298  145  146 2
 299  145  153 1
 300  146  147 1
 301  146  340 1
 302  147  148 1
 303  147  341 1
 304  148  149 ar
 305  148  153 ar
 306  149  150 ar
 307  149  342 1
 308  150  151 ar
 309  150  343 1
 310  151  152 ar
 311  151  344 1
 312  152  153 ar
 313  152  345 1
 314  154  155 2
 315  154  157 1
 316  154  160 am
 317  156  157 1
 318  156  346 1
 319  157  347 1
 320  157  348 1
 321  158  159 2
 322  158  161 1
 323  158  171 am
 324  160  161 1
 325  160  349 1
 326  161  162 1
 327  161  350 1
 328  162  163 1
 329  162  351 1
 330  162  352 1
 331  163  164 ar
 332  163  168 ar
 333  164  165 ar
 334  164  353 1
 335  165  166 ar
 336  165  354 1
 337  166  167 ar
 338  166  355 1
 339  167  168 ar
 340  167  356 1
 341  168  357 1
 342  169  170 2
 343  169  172 1
 344  169  176 1
 345  171  172 1
 346  171  358 1
 347  172  173 1
 348  172  359 1
 349  173  174 1
 350  173  175 1
 351  173  360 1
 352  174  361 1
 353  174  362 1
 354  174  363 1
 355  175  364 1
 356  176  365 1
 357  177  178 2
 358  177  193 1
 359  179  180 1
 360  179  366 1
 361  179  367 1
 362  179  368 1
 363  180  181 1
 364  180  369 1
 365  180  370 1
 366  181  182 1
 367  181  371 1
 368  181  372 1
 369  182  183 1
 370  182  373 1
 371  182  374 1
 372  183  184 1
 373  183  375 1
 374  183  376 1
 375  184  185 1
 376  184  377 1
 377  184  378 1
 378  185  186 1
 379  185  379 1
 380  185  380 1
 381  186  187 1
 382  186  381 1
 383  186  382 1
 384  187  188 1
 385  187  383 1
 386  187  384 1
 387  188  189 1
 388  188  385 1
 389  188  386 1
 390  189  190 1
 391  189  387 1
 392  189  388 1
 393  190  191 1
 394  190  389 1
 395  190  390 1
 396  191  192 1
 397  191  391 1
 398  191  392 1
 399  192  193 1
 400  192  393 1
 401  192  394 1
 402  193  395 1
 403  193  396 1

#	End of record

