#	Name: ASD01914960
#	Creating user name:	WinNT
#	Creation time:	15. 06. 2019 20:04

#	Modifying user name:	WinNT
#	Modification time:	15. 06. 2019 20:04

#	Program:	/corina/corina34_cracker 3.40 0067  02.08.2006

@<TRIPOS>MOLECULE
ASD01914960
  64   67    0    0    0
SMALL
NO_CHARGES


@<TRIPOS>ATOM
   1 C1             0.1597     1.6256     2.3256 C.2     
   2 N2            -0.0014     0.3348     2.1246 N.2     
   3 C3             1.3410     2.0223     1.6691 C.2     
   4 C4             1.8716     0.9308     1.0760 C.2     
   5 N5             1.0661    -0.1203     1.3402 N.pl3   
   6 C6            -0.7467     2.5083     3.1015 C.ar    
   7 C7            -0.5130     3.8815     3.1490 C.ar    
   8 C8            -1.3575     4.7005     3.8709 C.ar    
   9 C9            -2.4359     4.1626     4.5484 C.ar    
  10 C10           -2.6753     2.7962     4.5065 C.ar    
  11 C11           -1.8361     1.9677     3.7792 C.ar    
  12 C12            3.1396     0.8929     0.2624 C.3     
  13 C13            1.2728    -1.4975     0.8855 C.3     
  14 C14            2.0905    -2.2461     1.9063 C.2     
  15 N15            2.4069    -3.5397     1.6989 N.am    
  16 O16            2.4638    -1.6846     2.9144 O.2     
  17 C17            3.2043    -4.2997     2.6764 C.3     
  18 C18            2.3529    -5.4648     3.1845 C.3     
  19 N19            1.7114    -6.1579     2.0757 N.am    
  20 C20            1.4905    -5.6225     0.8742 C.2     
  21 C21            1.9648    -4.2513     0.4904 C.3     
  22 C22            3.2829     2.1999    -0.5199 C.3     
  23 C23            1.2974    -7.4778     2.2857 C.ar    
  24 C24            0.0276    -7.7371     2.7853 C.ar    
  25 C25           -0.3811    -9.0406     2.9927 C.ar    
  26 C26            0.4715   -10.0889     2.7045 C.ar    
  27 C27            1.7417    -9.8356     2.2051 C.ar    
  28 C28            2.1530    -8.5299     1.9898 C.ar    
  29 O29            0.8754    -6.2723     0.0554 O.2     
  30 C30            4.3397     0.7231     1.1960 C.3     
  31 O31           -3.7360     2.2714     5.1746 O.3     
  32 C32           -4.5625     3.1845     5.8994 C.3     
  33 O33            2.5794   -10.8677     1.9225 O.3     
  34 C34            2.0873   -12.1875     2.1637 C.3     
  35 H35            1.7497     3.0217     1.6441 H       
  36 H36            0.3290     4.3046     2.6214 H       
  37 H37           -1.1752     5.7644     3.9068 H       
  38 H38           -3.0938     4.8075     5.1121 H       
  39 H39           -2.0213     0.9043     3.7454 H       
  40 H40            3.0996     0.0552    -0.4339 H       
  41 H41            0.3074    -1.9883     0.7625 H       
  42 H42            1.8007    -1.4899    -0.0681 H       
  43 H43            4.1048    -4.6838     2.1973 H       
  44 H44            3.4778    -3.6531     3.5102 H       
  45 H45            2.9893    -6.1652     3.7253 H       
  46 H46            1.5873    -5.0821     3.8595 H       
  47 H47            1.1504    -3.7023     0.0177 H       
  48 H48            2.8016    -4.3353    -0.2030 H       
  49 H49            3.3229     3.0376     0.1763 H       
  50 H50            4.2000     2.1725    -1.1084 H       
  51 H51            2.4279     2.3209    -1.1851 H       
  52 H52           -0.6405    -6.9195     3.0120 H       
  53 H53           -1.3688    -9.2403     3.3812 H       
  54 H54            0.1495   -11.1067     2.8684 H       
  55 H55            3.1407    -8.3309     1.6010 H       
  56 H56            4.2376    -0.2080     1.7534 H       
  57 H57            5.2568     0.6956     0.6076 H       
  58 H58            4.3797     1.5608     1.8923 H       
  59 H59           -3.9645     3.6953     6.6541 H       
  60 H60           -4.9833     3.9180     5.2117 H       
  61 H61           -5.3700     2.6367     6.3851 H       
  62 H62            1.8364   -12.2944     3.2191 H       
  63 H63            1.1966   -12.3592     1.5593 H       
  64 H64            2.8535   -12.9154     1.8969 H       
@<TRIPOS>BOND
   1    1    2 2
   2    1    3 1
   3    1    6 1
   4    2    5 1
   5    3    4 2
   6    3   35 1
   7    4    5 1
   8    4   12 1
   9    5   13 1
  10    6    7 ar
  11    6   11 ar
  12    7    8 ar
  13    7   36 1
  14    8    9 ar
  15    8   37 1
  16    9   10 ar
  17    9   38 1
  18   10   11 ar
  19   10   31 1
  20   11   39 1
  21   12   22 1
  22   12   30 1
  23   12   40 1
  24   13   14 1
  25   13   41 1
  26   13   42 1
  27   14   15 am
  28   14   16 2
  29   15   17 1
  30   15   21 1
  31   17   18 1
  32   17   43 1
  33   17   44 1
  34   18   19 1
  35   18   45 1
  36   18   46 1
  37   19   20 am
  38   19   23 1
  39   20   21 1
  40   20   29 2
  41   21   47 1
  42   21   48 1
  43   22   49 1
  44   22   50 1
  45   22   51 1
  46   23   24 ar
  47   23   28 ar
  48   24   25 ar
  49   24   52 1
  50   25   26 ar
  51   25   53 1
  52   26   27 ar
  53   26   54 1
  54   27   28 ar
  55   27   33 1
  56   28   55 1
  57   30   56 1
  58   30   57 1
  59   30   58 1
  60   31   32 1
  61   32   59 1
  62   32   60 1
  63   32   61 1
  64   33   34 1
  65   34   62 1
  66   34   63 1
  67   34   64 1

#	End of record

