#	Name: ASD02500130
#	Creating user name:	WinNT
#	Creation time:	15. 06. 2019 20:22

#	Modifying user name:	WinNT
#	Modification time:	15. 06. 2019 20:22

#	Program:	/corina/corina34_cracker 3.40 0067  02.08.2006

@<TRIPOS>MOLECULE
ASD02500130
  63   66    0    0    0
SMALL
NO_CHARGES


@<TRIPOS>ATOM
   1 C1            -2.1636     4.1698    -0.4537 C.ar    
   2 C2            -1.0885     5.0366    -0.5148 C.ar    
   3 C3            -1.2730     6.3374    -0.9446 C.ar    
   4 C4            -2.5325     6.7713    -1.3137 C.ar    
   5 C5            -3.6074     5.9042    -1.2534 C.ar    
   6 C6            -3.4232     4.6038    -0.8223 C.ar    
   7 S7            -1.9271     2.5096     0.0873 S.o2    
   8 O8            -3.0570     1.7757    -0.3642 O.2     
   9 O9            -0.5906     2.1643    -0.2500 O.2     
  10 N10           -2.0049     2.5172     1.7414 N.am    
  11 C11           -4.9806     6.3774    -1.6553 C.3     
  12 C12           -0.1011     7.2826    -1.0104 C.3     
  13 C13           -1.0489     3.2065     2.4792 C.ar    
  14 C14           -1.4437     4.0341     3.5268 C.ar    
  15 C15           -0.5000     4.7175     4.2589 C.ar    
  16 C16            0.8564     4.5802     3.9497 C.ar    
  17 C17            1.2496     3.7485     2.8971 C.ar    
  18 C18            0.3015     3.0632     2.1725 C.ar    
  19 C19            1.8706     5.3119     4.7321 C.2     
  20 O20            2.9135     4.7661     5.0370 O.2     
  21 N21            1.6412     6.5854     5.1091 N.am    
  22 C22            2.6758     7.3643     5.8064 C.3     
  23 C23            2.8499     8.7023     5.0801 C.3     
  24 N24            1.5448     9.3665     4.9645 N.3     
  25 C25            0.6153     8.5763     4.1462 C.3     
  26 C26            0.3518     7.2351     4.8288 C.3     
  27 C27            1.6849    10.6623     4.4544 C.ar    
  28 C28            2.3458    11.6383     5.1979 C.ar    
  29 C29            2.4818    12.9184     4.6881 C.ar    
  30 C30            1.9621    13.2265     3.4437 C.ar    
  31 C31            1.3062    12.2594     2.7058 C.ar    
  32 C32            1.1714    10.9771     3.2051 C.ar    
  33 O33            2.8555    11.3341     6.4217 O.3     
  34 C34            3.5200    12.3844     7.1269 C.3     
  35 H35           -0.1044     4.6976    -0.2265 H       
  36 H36           -2.6768     7.7878    -1.6489 H       
  37 H37           -4.2631     3.9265    -0.7748 H       
  38 H38           -2.7174     2.0408     2.1956 H       
  39 H39           -5.1295     6.1982    -2.7201 H       
  40 H40           -5.7337     5.8322    -1.0864 H       
  41 H41           -5.0719     7.4440    -1.4501 H       
  42 H42            0.3641     7.2167    -1.9939 H       
  43 H43           -0.4467     8.3022    -0.8395 H       
  44 H44            0.6268     7.0127    -0.2453 H       
  45 H45           -2.4918     4.1400     3.7650 H       
  46 H46           -0.8070     5.3596     5.0712 H       
  47 H47            2.2967     3.6407     2.6556 H       
  48 H48            0.6050     2.4168     1.3623 H       
  49 H49            2.3670     7.5440     6.8361 H       
  50 H50            3.6176     6.8157     5.7940 H       
  51 H51            3.5322     9.3370     5.6456 H       
  52 H52            3.2575     8.5256     4.0847 H       
  53 H53           -0.3230     9.1196     4.0344 H       
  54 H54            1.0541     8.4013     3.1639 H       
  55 H55           -0.2422     6.6011     4.1704 H       
  56 H56           -0.1847     7.4022     5.7628 H       
  57 H57            2.9935    13.6766     5.2623 H       
  58 H58            2.0690    14.2257     3.0479 H       
  59 H59            0.9014    12.5048     1.7350 H       
  60 H60            0.6623    10.2220     2.6245 H       
  61 H61            4.3654    12.7396     6.5376 H       
  62 H62            2.8238    13.2060     7.2956 H       
  63 H63            3.8777    12.0087     8.0856 H       
@<TRIPOS>BOND
   1    1    2 ar
   2    1    6 ar
   3    1    7 1
   4    2    3 ar
   5    2   35 1
   6    3    4 ar
   7    3   12 1
   8    4    5 ar
   9    4   36 1
  10    5    6 ar
  11    5   11 1
  12    6   37 1
  13    7    8 2
  14    7    9 2
  15    7   10 am
  16   10   13 1
  17   10   38 1
  18   11   39 1
  19   11   40 1
  20   11   41 1
  21   12   42 1
  22   12   43 1
  23   12   44 1
  24   13   14 ar
  25   13   18 ar
  26   14   15 ar
  27   14   45 1
  28   15   16 ar
  29   15   46 1
  30   16   17 ar
  31   16   19 1
  32   17   18 ar
  33   17   47 1
  34   18   48 1
  35   19   20 2
  36   19   21 am
  37   21   22 1
  38   21   26 1
  39   22   23 1
  40   22   49 1
  41   22   50 1
  42   23   24 1
  43   23   51 1
  44   23   52 1
  45   24   25 1
  46   24   27 1
  47   25   26 1
  48   25   53 1
  49   25   54 1
  50   26   55 1
  51   26   56 1
  52   27   28 ar
  53   27   32 ar
  54   28   29 ar
  55   28   33 1
  56   29   30 ar
  57   29   57 1
  58   30   31 ar
  59   30   58 1
  60   31   32 ar
  61   31   59 1
  62   32   60 1
  63   33   34 1
  64   34   61 1
  65   34   62 1
  66   34   63 1

#	End of record

