#	Name: ASD01151006
#	Creating user name:	WinNT
#	Creation time:	15. 06. 2019 19:05

#	Modifying user name:	WinNT
#	Modification time:	15. 06. 2019 19:05

#	Program:	/corina/corina34_cracker 3.40 0067  02.08.2006

@<TRIPOS>MOLECULE
ASD01151006
  22   21    0    0    0
SMALL
NO_CHARGES


@<TRIPOS>ATOM
   1 C1             0.3387     1.7155     0.2695 C.3     
   2 C2             0.3776     0.1860     0.2676 C.3     
   3 C3             0.8786    -0.3099    -1.0903 C.3     
   4 C4             0.9169    -1.8164    -1.0921 C.2     
   5 N5             0.5508    -2.4800    -0.0289 N.2     
   6 O6             1.3280    -2.4771    -2.1886 O.3     
   7 C7             1.4676    -3.9180    -2.0763 C.3     
   8 C8             2.1118    -4.4688    -3.3501 C.3     
   9 C9             0.4216    -3.8278    -0.0826 C.1     
  10 N10            0.3132    -4.9577    -0.1276 N.1     
  11 H11            1.3405     2.1046     0.0877 H       
  12 H12           -0.3338     2.0628    -0.5149 H       
  13 H13           -0.0182     2.0687     1.2369 H       
  14 H14            1.0501    -0.1614     1.0520 H       
  15 H15           -0.6243    -0.2032     0.4494 H       
  16 H16            0.2061     0.0375    -1.8747 H       
  17 H17            1.8804     0.0792    -1.2721 H       
  18 H18            2.0968    -4.1563    -1.2187 H       
  19 H19            0.4844    -4.3690    -1.9421 H       
  20 H20            1.4826    -4.2305    -4.2077 H       
  21 H21            3.0950    -4.0178    -3.4843 H       
  22 H22            2.2166    -5.5505    -3.2658 H       
@<TRIPOS>BOND
   1    1    2 1
   2    1   11 1
   3    1   12 1
   4    1   13 1
   5    2    3 1
   6    2   14 1
   7    2   15 1
   8    3    4 1
   9    3   16 1
  10    3   17 1
  11    4    5 2
  12    4    6 1
  13    5    9 1
  14    6    7 1
  15    7    8 1
  16    7   18 1
  17    7   19 1
  18    8   20 1
  19    8   21 1
  20    8   22 1
  21    9   10 3

#	End of record

