#	Name: ASD01410272
#	Creating user name:	WinNT
#	Creation time:	15. 06. 2019 19:17

#	Modifying user name:	WinNT
#	Modification time:	15. 06. 2019 19:17

#	Program:	/corina/corina34_cracker 3.40 0067  02.08.2006

@<TRIPOS>MOLECULE
ASD01410272
  49   53    0    0    0
SMALL
NO_CHARGES


@<TRIPOS>ATOM
   1 C1             0.0760     1.3881     0.7899 C.ar    
   2 C2             0.0944    -0.0067     0.7806 C.ar    
   3 C3             1.2688    -0.6950     0.5065 C.ar    
   4 C4             2.4390     0.0086     0.2380 C.ar    
   5 C5             2.4124     1.4197     0.2487 C.ar    
   6 C6             1.2102     2.0955     0.5297 C.ar    
   7 O7             3.5790    -0.6655    -0.0276 O.3     
   8 C8             4.7309    -0.0149    -0.2918 C.2     
   9 C9             4.7606     1.4487    -0.2944 C.2     
  10 C10            3.5869     2.1521    -0.0212 C.2     
  11 C11            5.8939    -0.7076    -0.5619 C.2     
  12 C12            7.0750    -0.0000    -0.8322 C.2     
  13 C13            7.0933     1.4081    -0.8320 C.2     
  14 C14            5.9708     2.1215    -0.5716 C.2     
  15 O15            8.1066    -0.6170    -1.0717 O.2     
  16 O16            5.8950    -2.0697    -0.5655 O.3     
  17 O17            1.2754    -2.0560     0.5010 O.3     
  18 O18           -1.0449    -0.6966     1.0421 O.3     
  19 C19            4.2829     4.2091    -1.2737 C.3     
  20 C20            3.5746     3.6591    -0.0147 C.3     
  21 C21            2.1128     4.1912    -0.1207 C.3     
  22 C22            1.4905     3.3900    -1.3048 C.3     
  23 C23            2.1989     3.9401    -2.5638 C.3     
  24 C24            3.1824     5.0219    -2.0218 C.3     
  25 C25            2.3589     5.5805    -0.8081 C.3     
  26 C26            1.0523     6.2388    -1.2556 C.3     
  27 C27            5.4261     5.1097    -0.8822 C.2     
  28 O28            5.6680     5.3059     0.2853 O.2     
  29 O29            6.1755     5.6937    -1.8303 O.3     
  30 H30           -0.8453     1.9108     1.0005 H       
  31 H31            1.1871     3.1752     0.5385 H       
  32 H32            8.0163     1.9277    -1.0431 H       
  33 H33            6.0018     3.2010    -0.5758 H       
  34 H34            6.7561    -2.4618    -0.7652 H       
  35 H35            1.0780    -2.4467    -0.3612 H       
  36 H36           -1.5744    -0.8934     0.2573 H       
  37 H37            4.6419     3.3896    -1.8964 H       
  38 H38            4.0532     4.0400     0.8875 H       
  39 H39            1.5387     4.1949     0.8059 H       
  40 H40            1.6919     2.3249    -1.1903 H       
  41 H41            0.4172     3.5705    -1.3633 H       
  42 H42            2.7485     3.1454    -3.0683 H       
  43 H43            1.4738     4.3910    -3.2413 H       
  44 H44            3.5399     5.7490    -2.7509 H       
  45 H45            2.9534     6.2465    -0.1826 H       
  46 H46            0.4471     5.5129    -1.7987 H       
  47 H47            0.5032     6.5879    -0.3811 H       
  48 H48            1.2757     7.0846    -1.9058 H       
  49 H49            6.8976     6.2628    -1.5305 H       
@<TRIPOS>BOND
   1    1    2 ar
   2    1    6 ar
   3    1   30 1
   4    2    3 ar
   5    2   18 1
   6    3    4 ar
   7    3   17 1
   8    4    5 ar
   9    4    7 1
  10    5    6 ar
  11    5   10 1
  12    6   31 1
  13    7    8 1
  14    8    9 1
  15    8   11 2
  16    9   10 2
  17    9   14 1
  18   10   20 1
  19   11   12 1
  20   11   16 1
  21   12   13 1
  22   12   15 2
  23   13   14 2
  24   13   32 1
  25   14   33 1
  26   16   34 1
  27   17   35 1
  28   18   36 1
  29   19   20 1
  30   19   27 1
  31   19   24 1
  32   19   37 1
  33   20   21 1
  34   20   38 1
  35   21   22 1
  36   21   25 1
  37   21   39 1
  38   22   23 1
  39   22   40 1
  40   22   41 1
  41   23   24 1
  42   23   42 1
  43   23   43 1
  44   24   25 1
  45   24   44 1
  46   25   26 1
  47   25   45 1
  48   26   46 1
  49   26   47 1
  50   26   48 1
  51   27   28 2
  52   27   29 1
  53   29   49 1

#	End of record

