#	Name: ASD01883853
#	Creating user name:	WinNT
#	Creation time:	15. 06. 2019 19:47

#	Modifying user name:	WinNT
#	Modification time:	15. 06. 2019 19:47

#	Program:	/corina/corina34_cracker 3.40 0067  02.08.2006

@<TRIPOS>MOLECULE
ASD01883853
  51   52    0    0    0
SMALL
NO_CHARGES


@<TRIPOS>ATOM
   1 C1            -0.0170     1.4019     0.0098 C.2     
   2 C2             0.0021    -0.0041     0.0020 C.2     
   3 C3            -1.2244    -0.6972     0.0100 C.2     
   4 C4            -2.3887    -0.0097     0.0247 C.2     
   5 N5            -2.4081     1.3481     0.0318 N.am    
   6 C6            -1.2689     2.0648     0.0312 C.2     
   7 O7            -1.3144     3.2832     0.0380 O.2     
   8 C8            -3.6955     2.0471     0.0468 C.3     
   9 C9             1.2047     2.1489     0.0021 C.1     
  10 N10            2.1739     2.7414    -0.0040 N.1     
  11 C11            1.2833    -0.7401    -0.0146 C.ar    
  12 C12           -4.1308     2.2831     1.4944 C.3     
  13 C13           -5.4753     3.0132     1.5101 C.3     
  14 C14           -5.9706     3.1388     2.9523 C.3     
  15 C15           -5.3050     4.4085     0.9060 C.3     
  16 C16            1.6469    -1.5377     1.0731 C.ar    
  17 C17            2.8418    -2.2226     1.0536 C.ar    
  18 C18            3.6852    -2.1209    -0.0462 C.ar    
  19 C19            3.3274    -1.3281    -1.1300 C.ar    
  20 C20            2.1315    -0.6446    -1.1205 C.ar    
  21 O21            4.8621    -2.7975    -0.0616 O.3     
  22 C22            5.6811    -2.6483    -1.2232 C.3     
  23 C23            6.9364    -3.4661    -1.0612 C.2     
  24 N24            7.8919    -3.4789    -2.0695 N.pl3   
  25 C25            9.1123    -4.2740    -1.9120 C.3     
  26 C26            7.1280    -4.1702     0.0386 C.2     
  27 H27           -1.2348    -1.7771     0.0039 H       
  28 H28           -3.3228    -0.5518     0.0307 H       
  29 H29           -3.5947     3.0052    -0.4631 H       
  30 H30           -4.4440     1.4409    -0.4634 H       
  31 H31           -4.2316     1.3251     2.0044 H       
  32 H32           -3.3822     2.8893     2.0047 H       
  33 H33           -6.2015     2.4498     0.9243 H       
  34 H34           -5.2443     3.7023     3.5381 H       
  35 H35           -6.9284     3.6589     2.9635 H       
  36 H36           -6.0919     2.1447     3.3827 H       
  37 H37           -4.9522     4.3190    -0.1214 H       
  38 H38           -6.2629     4.9286     0.9172 H       
  39 H39           -4.5788     4.9720     1.4918 H       
  40 H40            0.9921    -1.6170     1.9283 H       
  41 H41            3.1238    -2.8392     1.8943 H       
  42 H42            3.9858    -1.2510    -1.9825 H       
  43 H43            1.8540    -0.0287    -1.9632 H       
  44 H44            5.1336    -2.9929    -2.1004 H       
  45 H45            5.9452    -1.5983    -1.3490 H       
  46 H46            7.7511    -2.9615    -2.8777 H       
  47 H47            9.7370    -4.1601    -2.7980 H       
  48 H48            9.6598    -3.9294    -1.0347 H       
  49 H49            8.8482    -5.3240    -1.7862 H       
  50 H50            8.0277    -4.7563     0.1547 H       
  51 H51            6.3852    -4.1602     0.8225 H       
@<TRIPOS>BOND
   1    1    2 2
   2    1    9 1
   3    1    6 1
   4    2    3 1
   5    2   11 1
   6    3    4 2
   7    3   27 1
   8    4    5 1
   9    4   28 1
  10    5    6 am
  11    5    8 1
  12    6    7 2
  13    8   12 1
  14    8   29 1
  15    8   30 1
  16    9   10 3
  17   11   16 ar
  18   11   20 ar
  19   12   13 1
  20   12   31 1
  21   12   32 1
  22   13   14 1
  23   13   15 1
  24   13   33 1
  25   14   34 1
  26   14   35 1
  27   14   36 1
  28   15   37 1
  29   15   38 1
  30   15   39 1
  31   16   17 ar
  32   16   40 1
  33   17   18 ar
  34   17   41 1
  35   18   19 ar
  36   18   21 1
  37   19   20 ar
  38   19   42 1
  39   20   43 1
  40   21   22 1
  41   22   23 1
  42   22   44 1
  43   22   45 1
  44   23   24 1
  45   23   26 2
  46   24   25 1
  47   24   46 1
  48   25   47 1
  49   25   48 1
  50   25   49 1
  51   26   50 1
  52   26   51 1

#	End of record

