#	Name: ASD01911815
#	Creating user name:	WinNT
#	Creation time:	15. 06. 2019 19:58

#	Modifying user name:	WinNT
#	Modification time:	15. 06. 2019 19:58

#	Program:	/corina/corina34_cracker 3.40 0067  02.08.2006

@<TRIPOS>MOLECULE
ASD01911815
  43   45    0    0    0
SMALL
NO_CHARGES


@<TRIPOS>ATOM
   1 C1             0.1406     0.8415    -1.0303 C.2     
   2 N2             0.0453    -0.3367    -0.3358 N.pl3   
   3 C3             1.2095    -1.0238    -0.0133 C.2     
   4 C4             2.4521    -0.4739    -0.4180 C.2     
   5 C5             2.4492     0.6972    -1.1012 C.2     
   6 N6             1.2960     1.3191    -1.3873 N.2     
   7 C7             0.8730    -2.1532     0.6689 C.2     
   8 C8            -0.5408    -2.1753     0.7774 C.2     
   9 C9            -1.0192    -1.0340     0.1433 C.2     
  10 C10           -1.3483    -3.2098     1.4360 C.2     
  11 O11           -2.5610    -3.1114     1.4601 O.2     
  12 N12           -0.7464    -4.2682     2.0139 N.am    
  13 N13           -2.3499    -0.6701     0.0213 N.pl3   
  14 C14           -2.8408     0.4330     0.7270 C.ar    
  15 C15           -4.1916     0.7600     0.6585 C.ar    
  16 C16           -4.6726     1.8512     1.3576 C.ar    
  17 C17           -3.8119     2.6173     2.1239 C.ar    
  18 C18           -2.4690     2.2941     2.1934 C.ar    
  19 C19           -1.9825     1.2011     1.5021 C.ar    
  20 I20           -4.5447     4.2711     3.1808 I       
  21 F21           -5.0315     0.0124    -0.0904 F       
  22 O22           -1.5252    -5.2658     2.6491 O.3     
  23 C23           -0.7572    -6.3280     3.2181 C.3     
  24 C24           -1.6966    -7.3422     3.8737 C.3     
  25 C25           -0.8714    -8.4132     4.5898 C.3     
  26 O26           -1.7458    -9.2934     5.2987 O.3     
  27 O27           -2.5081    -7.9573     2.8711 O.3     
  28 H28           -0.7593     1.3797    -1.2889 H       
  29 H29            3.3798    -0.9762    -0.1870 H       
  30 H30            3.3849     1.1334    -1.4184 H       
  31 H31            1.5563    -2.8948     1.0557 H       
  32 H32            0.2202    -4.3465     1.9947 H       
  33 H33           -2.9415    -1.1803    -0.5537 H       
  34 H34           -5.7207     2.1062     1.3054 H       
  35 H35           -1.8003     2.8946     2.7922 H       
  36 H36           -0.9344     0.9473     1.5609 H       
  37 H37           -0.1812    -6.8201     2.4344 H       
  38 H38           -0.0780    -5.9237     3.9687 H       
  39 H39           -2.3349    -6.8324     4.5954 H       
  40 H40           -0.2996    -8.9819     3.8565 H       
  41 H41           -0.1883    -7.9360     5.2925 H       
  42 H42           -1.2899    -9.9992     5.7774 H       
  43 H43           -2.0053    -8.4303     2.1939 H       
@<TRIPOS>BOND
   1    1    2 1
   2    1    6 2
   3    1   28 1
   4    2    3 1
   5    2    9 1
   6    3    4 1
   7    3    7 2
   8    4    5 2
   9    4   29 1
  10    5    6 1
  11    5   30 1
  12    7    8 1
  13    7   31 1
  14    8    9 2
  15    8   10 1
  16    9   13 1
  17   10   11 2
  18   10   12 am
  19   12   22 1
  20   12   32 1
  21   13   14 1
  22   13   33 1
  23   14   15 ar
  24   14   19 ar
  25   15   16 ar
  26   15   21 1
  27   16   17 ar
  28   16   34 1
  29   17   18 ar
  30   17   20 1
  31   18   19 ar
  32   18   35 1
  33   19   36 1
  34   22   23 1
  35   23   24 1
  36   23   37 1
  37   23   38 1
  38   24   25 1
  39   24   27 1
  40   24   39 1
  41   25   26 1
  42   25   40 1
  43   25   41 1
  44   26   42 1
  45   27   43 1

#	End of record

