#	Name: ASD01870269
#	Creating user name:	WinNT
#	Creation time:	15. 06. 2019 19:38

#	Modifying user name:	WinNT
#	Modification time:	15. 06. 2019 19:38

#	Program:	/corina/corina34_cracker 3.40 0067  02.08.2006

@<TRIPOS>MOLECULE
ASD01870269
  57   61    0    0    0
SMALL
NO_CHARGES


@<TRIPOS>ATOM
   1 C1            -0.0162     1.3398     0.0094 C.2     
   2 N2             0.0021    -0.0041     0.0020 N.am    
   3 C3             1.3998    -0.4509    -0.0137 C.3     
   4 C4             2.2410     0.8006    -0.0150 C.ar    
   5 C5             3.6215     1.0281    -0.0270 C.ar    
   6 C6             4.1060     2.3623    -0.0245 C.ar    
   7 C7             3.1922     3.4320    -0.0100 C.ar    
   8 C8             1.8575     3.1896     0.0014 C.ar    
   9 C9             1.3610     1.8712    -0.0009 C.ar    
  10 C10            5.4912     2.5907    -0.0360 C.ar    
  11 C11            6.3499     1.5338    -0.0494 C.ar    
  12 C12            5.8752     0.2240    -0.0524 C.ar    
  13 C13            4.5394    -0.0370    -0.0410 C.ar    
  14 O14           -1.0232     2.0206     0.0181 O.2     
  15 C15            3.6978     4.8516    -0.0068 C.3     
  16 C16            3.9699     5.2912    -1.4223 C.ar    
  17 C17            2.9693     5.8935    -2.1624 C.ar    
  18 C18            3.2161     6.2974    -3.4602 C.ar    
  19 C19            4.4694     6.0982    -4.0209 C.ar    
  20 C20            5.4717     5.4936    -3.2763 C.ar    
  21 C21            5.2214     5.0967    -1.9769 C.ar    
  22 O22            4.7146     6.4942    -5.2976 O.3     
  23 C23            6.0276     6.2573    -5.8094 C.3     
  24 C24           -1.1752    -0.8760     0.0086 C.3     
  25 C25           -2.0258    -0.5937    -1.2314 C.3     
  26 C26           -3.2553    -1.5043    -1.2246 C.3     
  27 C27           -4.0828    -1.2345     0.0338 C.3     
  28 C28           -3.2321    -1.5168     1.2738 C.3     
  29 C29           -2.0026    -0.6062     1.2669 C.3     
  30 O30           -1.2530    -0.8456    -2.4067 O.3     
  31 H31            1.6133    -1.0452     0.8748 H       
  32 H32            1.5963    -1.0356    -0.9125 H       
  33 H33            1.1659     4.0190     0.0128 H       
  34 H34            5.8742     3.6005    -0.0346 H       
  35 H35            7.4148     1.7137    -0.0583 H       
  36 H36            6.5775    -0.5964    -0.0638 H       
  37 H37            4.1860    -1.0576    -0.0434 H       
  38 H38            2.9464     5.5039     0.4382 H       
  39 H39            4.6182     4.9082     0.5745 H       
  40 H40            1.9937     6.0480    -1.7256 H       
  41 H41            2.4341     6.7675    -4.0380 H       
  42 H42            6.4481     5.3374    -3.7105 H       
  43 H43            6.0028     4.6303    -1.3952 H       
  44 H44            6.2381     5.1880    -5.7889 H       
  45 H45            6.0884     6.6200    -6.8355 H       
  46 H46            6.7577     6.7833    -5.1943 H       
  47 H47           -0.8556    -1.9180     0.0004 H       
  48 H48           -2.3454     0.4484    -1.2232 H       
  49 H49           -3.8614    -1.3031    -2.1080 H       
  50 H50           -2.9357    -2.5463    -1.2328 H       
  51 H51           -4.4024    -0.1924     0.0420 H       
  52 H52           -4.9587    -1.8832     0.0387 H       
  53 H53           -3.8216    -1.3246     2.1703 H       
  54 H54           -2.9125    -2.5589     1.2656 H       
  55 H55           -1.3966    -0.8073     2.1503 H       
  56 H56           -2.3222     0.4358     1.2751 H       
  57 H57           -1.7302    -0.6870    -3.2327 H       
@<TRIPOS>BOND
   1    1    2 am
   2    1    9 1
   3    1   14 2
   4    2    3 1
   5    2   24 1
   6    3    4 1
   7    3   31 1
   8    3   32 1
   9    4    5 ar
  10    4    9 ar
  11    5    6 ar
  12    5   13 ar
  13    6    7 ar
  14    6   10 ar
  15    7    8 ar
  16    7   15 1
  17    8    9 ar
  18    8   33 1
  19   10   11 ar
  20   10   34 1
  21   11   12 ar
  22   11   35 1
  23   12   13 ar
  24   12   36 1
  25   13   37 1
  26   15   16 1
  27   15   38 1
  28   15   39 1
  29   16   17 ar
  30   16   21 ar
  31   17   18 ar
  32   17   40 1
  33   18   19 ar
  34   18   41 1
  35   19   20 ar
  36   19   22 1
  37   20   21 ar
  38   20   42 1
  39   21   43 1
  40   22   23 1
  41   23   44 1
  42   23   45 1
  43   23   46 1
  44   24   25 1
  45   24   29 1
  46   24   47 1
  47   25   26 1
  48   25   30 1
  49   25   48 1
  50   26   27 1
  51   26   49 1
  52   26   50 1
  53   27   28 1
  54   27   51 1
  55   27   52 1
  56   28   29 1
  57   28   53 1
  58   28   54 1
  59   29   55 1
  60   29   56 1
  61   30   57 1

#	End of record

