#	Name: ASD05740118
#	Creating user name:	WinNT
#	Creation time:	15. 06. 2019 21:02

#	Modifying user name:	WinNT
#	Modification time:	15. 06. 2019 21:02

#	Program:	/corina/corina34_cracker 3.40 0067  02.08.2006

@<TRIPOS>MOLECULE
ASD05740118
  47   50    0    0    0
SMALL
NO_CHARGES


@<TRIPOS>ATOM
   1 C1            -0.1869     1.4407     0.0498 C.3     
   2 C2             1.5580     0.1290    -4.7786 C.ar    
   3 C3             0.0364    -0.8886     1.2303 C.2     
   4 C4             0.3833    -2.3106     1.1191 C.2     
   5 C5            -0.0909    -0.0626     0.0061 C.2     
   6 C6            -0.1153    -0.7683    -1.1687 C.2     
   7 C7            -0.0441    -2.2289    -1.1309 C.2     
   8 O8             0.5883    -2.8707    -0.1230 O.3     
   9 S9            -0.2318     0.0762    -2.7107 S.3     
  10 C10            1.3209    -0.2679    -3.4694 C.ar    
  11 C11            2.3103    -0.9378    -2.7578 C.ar    
  12 O12           -0.5633    -2.8771    -2.0213 O.2     
  13 C13            2.7821    -0.1445    -5.3722 C.ar    
  14 C14            3.7662    -0.8143    -4.6551 C.ar    
  15 C15            3.5272    -1.2081    -3.3521 C.ar    
  16 N16            3.0249     0.2529    -6.6890 N.am    
  17 S17            3.7399    -0.7963    -7.7521 S.o2    
  18 O18            3.8157    -0.1161    -8.9975 O.2     
  19 O19            4.8771    -1.3286    -7.0868 O.2     
  20 C20            0.4637    -2.9289     2.2974 C.2     
  21 S21            0.1234    -1.8253     3.6187 S.3     
  22 C22           -0.1292    -0.4821     2.5162 C.2     
  23 O23            0.7695    -4.2448     2.4551 O.3     
  24 C24            0.8159    -4.7402     3.7146 C.ar    
  25 N25            1.1111    -6.0178     3.8954 N.ar    
  26 N26            0.5702    -3.9339     4.7351 N.ar    
  27 C27            0.6075    -4.3852     5.9780 C.ar    
  28 C28            0.9084    -5.7192     6.2039 C.ar    
  29 C29            1.1653    -6.5339     5.1123 C.ar    
  30 N30            2.6929    -2.0602    -7.9725 N.am    
  31 C31            1.3940    -1.8327    -8.6107 C.3     
  32 H32            0.8153     1.8679     0.0851 H       
  33 H33           -0.7030     1.7979    -0.8413 H       
  34 H34           -0.7424     1.7436     0.9374 H       
  35 H35            0.7899     0.6455    -5.3352 H       
  36 H36            2.1270    -1.2466    -1.7393 H       
  37 H37            4.7189    -1.0277    -5.1168 H       
  38 H38            4.2940    -1.7285    -2.7973 H       
  39 H39            2.7746     1.1435    -6.9808 H       
  40 H40           -0.3854     0.5230     2.8171 H       
  41 H41            0.4064    -3.7223     6.8066 H       
  42 H42            0.9461    -6.1142     7.2083 H       
  43 H43            1.4029    -7.5779     5.2532 H       
  44 H44            2.9396    -2.9512    -7.6790 H       
  45 H45            0.8476    -2.7741    -8.6685 H       
  46 H46            0.8210    -1.1155    -8.0229 H       
  47 H47            1.5469    -1.4391    -9.6156 H       
@<TRIPOS>BOND
   1    1    5 1
   2    1   32 1
   3    1   33 1
   4    1   34 1
   5    2   10 ar
   6    2   13 ar
   7    2   35 1
   8    3    4 1
   9    3    5 1
  10    3   22 2
  11    4   20 2
  12    4    8 1
  13    5    6 2
  14    6    7 1
  15    6    9 1
  16    7    8 1
  17    7   12 2
  18    9   10 1
  19   10   11 ar
  20   11   15 ar
  21   11   36 1
  22   13   14 ar
  23   13   16 1
  24   14   15 ar
  25   14   37 1
  26   15   38 1
  27   16   17 am
  28   16   39 1
  29   17   18 2
  30   17   19 2
  31   17   30 am
  32   20   21 1
  33   20   23 1
  34   21   22 1
  35   22   40 1
  36   23   24 1
  37   24   25 ar
  38   24   26 ar
  39   25   29 ar
  40   26   27 ar
  41   27   28 ar
  42   27   41 1
  43   28   29 ar
  44   28   42 1
  45   29   43 1
  46   30   31 1
  47   30   44 1
  48   31   45 1
  49   31   46 1
  50   31   47 1

#	End of record

