#	Name: ASD02198587
#	Creating user name:	WinNT
#	Creation time:	15. 06. 2019 20:19

#	Modifying user name:	WinNT
#	Modification time:	15. 06. 2019 20:19

#	Program:	/corina/corina34_cracker 3.40 0067  02.08.2006

@<TRIPOS>MOLECULE
ASD02198587
  53   57    0    0    0
SMALL
NO_CHARGES


@<TRIPOS>ATOM
   1 C1            -0.2753     1.9327     0.2740 C.2     
   2 C2            -0.1205     0.6134    -0.0220 C.2     
   3 N3            -1.1774    -0.2309     0.0083 N.pl3   
   4 N4            -2.3665     0.1404     0.3098 N.2     
   5 C5            -2.6550     1.3881     0.6173 C.2     
   6 C6            -1.5756     2.3848     0.6193 C.2     
   7 C7            -0.9614    -1.5771    -0.3058 C.ar    
   8 C8            -1.4918    -3.5152    -1.6210 C.ar    
   9 C9            -0.5333    -4.2430    -0.9276 C.ar    
  10 C10            0.2063    -3.6361     0.0804 C.ar    
  11 C11           -0.0072    -2.3087     0.3903 C.ar    
  12 C12           -4.0384     1.7775     0.9590 C.2     
  13 N13           -4.4379     2.4610     2.0728 N.pl3   
  14 N14           -5.8276     2.6187     2.0011 N.2     
  15 C15           -6.2583     2.0598     0.8983 C.2     
  16 C16           -5.1679     1.5252     0.2119 C.2     
  17 C17           -3.6065     2.9210     3.1020 C.ar    
  18 C18           -2.5843     2.1140     3.5839 C.ar    
  19 O19           -1.7900     3.5558     0.8979 O.2     
  20 C20           -3.7991     4.1872     3.6386 C.ar    
  21 C21           -2.9774     4.6380     4.6530 C.ar    
  22 C22           -1.9634     3.8301     5.1340 C.ar    
  23 C23           -1.7660     2.5706     4.5985 C.ar    
  24 C24           -1.7063    -2.1854    -1.3118 C.ar    
  25 F25           -2.6386    -1.4766    -1.9853 F       
  26 O26            0.7817     2.7881     0.2454 O.3     
  27 C27            2.0523     2.2378    -0.1079 C.3     
  28 N28           -0.3165    -5.5888    -1.2401 N.am    
  29 C29           -1.2659    -6.5366    -1.3787 C.2     
  30 N30            0.9259    -6.1941    -1.4714 N.pl3   
  31 C31            0.7117    -7.5154    -1.7448 C.2     
  32 C32           -0.6149    -7.7518    -1.6950 C.2     
  33 C33            2.2288    -5.5259    -1.4277 C.3     
  34 F34            3.0641    -6.1912    -0.5239 F       
  35 F35            2.8075    -5.5486    -2.7012 F       
  36 O36           -2.4666    -6.3754    -1.2538 O.2     
  37 H37            0.8568     0.2361    -0.2844 H       
  38 H38           -2.0663    -3.9871    -2.4043 H       
  39 H39            0.9511    -4.2030     0.6191 H       
  40 H40            0.5679    -1.8381     1.1741 H       
  41 H41           -7.2871     2.0225     0.5720 H       
  42 H42           -5.2038     1.0012    -0.7318 H       
  43 H43           -2.4296     1.1302     3.1660 H       
  44 H44           -4.5905     4.8189     3.2629 H       
  45 H45           -3.1267     5.6227     5.0708 H       
  46 H46           -1.3217     4.1852     5.9268 H       
  47 H47           -0.9732     1.9420     4.9763 H       
  48 H48            2.3234     1.4611     0.6072 H       
  49 H49            1.9965     1.8076    -1.1078 H       
  50 H50            2.8061     3.0250    -0.0925 H       
  51 H51            1.4754    -8.2463    -1.9661 H       
  52 H52           -1.0964    -8.7033    -1.8664 H       
  53 H53            2.0966    -4.4925    -1.1072 H       
@<TRIPOS>BOND
   1    1    2 2
   2    1   26 1
   3    1    6 1
   4    2    3 1
   5    2   37 1
   6    3    4 1
   7    3    7 1
   8    4    5 2
   9    5    6 1
  10    5   12 1
  11    6   19 2
  12    7   24 ar
  13    7   11 ar
  14    8    9 ar
  15    8   24 ar
  16    8   38 1
  17    9   10 ar
  18    9   28 1
  19   10   11 ar
  20   10   39 1
  21   11   40 1
  22   12   13 1
  23   12   16 2
  24   13   14 1
  25   13   17 1
  26   14   15 2
  27   15   16 1
  28   15   41 1
  29   16   42 1
  30   17   20 ar
  31   17   18 ar
  32   18   23 ar
  33   18   43 1
  34   20   21 ar
  35   20   44 1
  36   21   22 ar
  37   21   45 1
  38   22   23 ar
  39   22   46 1
  40   23   47 1
  41   24   25 1
  42   26   27 1
  43   27   48 1
  44   27   49 1
  45   27   50 1
  46   28   29 am
  47   28   30 1
  48   29   36 2
  49   29   32 1
  50   30   31 1
  51   30   33 1
  52   31   32 2
  53   31   51 1
  54   32   52 1
  55   33   34 1
  56   33   35 1
  57   33   53 1

#	End of record

