#	Name: ASD01884199
#	Creating user name:	WinNT
#	Creation time:	15. 06. 2019 19:47

#	Modifying user name:	WinNT
#	Modification time:	15. 06. 2019 19:47

#	Program:	/corina/corina34_cracker 3.40 0067  02.08.2006

@<TRIPOS>MOLECULE
ASD01884199
  50   54    0    0    0
SMALL
NO_CHARGES


@<TRIPOS>ATOM
   1 S1            -0.0018     1.8591     0.8925 S.3     
   2 C2             0.0309     0.1272     1.2632 C.2     
   3 N3             1.3204    -0.2223     1.2906 N.am    
   4 C4             2.2761     0.7470     1.0471 C.ar    
   5 C5             1.7574     2.0188     0.7932 C.ar    
   6 C6             2.5789     3.0975     0.5313 C.ar    
   7 C7             3.9614     2.9278     0.5166 C.ar    
   8 C8             4.4944     1.6635     0.7684 C.ar    
   9 C9             3.6721     0.5952     1.0277 C.ar    
  10 O10           -0.9277    -0.5980     1.4549 O.2     
  11 C11            4.8561     4.0777     0.2362 C.ar    
  12 C12            6.2372     3.9006     0.2232 C.ar    
  13 C13            7.0680     4.9793    -0.0401 C.ar    
  14 C14            6.5208     6.2325    -0.2899 C.ar    
  15 C15            5.1502     6.4070    -0.2767 C.ar    
  16 C16            4.3162     5.3367    -0.0206 C.ar    
  17 C17            1.7138    -1.6049     1.5734 C.3     
  18 C18            1.7992    -2.3891     0.2624 C.3     
  19 C19            2.3109    -3.8293     0.3328 C.3     
  20 C20            0.8281    -3.5561     0.0729 C.3     
  21 F21            3.0796    -4.2948    -0.7393 F       
  22 F22            2.6649    -4.3282     1.5910 F       
  23 N23            8.4542     4.8068    -0.0538 N.3     
  24 C24            8.8165     3.5147    -0.6408 C.3     
  25 C25            9.0194     4.9916     1.2847 C.3     
  26 C26           10.5310     5.2192     1.1856 C.3     
  27 C27           10.2972     3.5172    -1.0333 C.3     
  28 S28           11.2976     3.7343     0.4692 S.o2    
  29 O29           12.6300     4.0482     0.0880 O.2     
  30 O30           11.0601     2.6349     1.3376 O.2     
  31 H31            2.1506     4.0699     0.3379 H       
  32 H32            5.5652     1.5235     0.7585 H       
  33 H33            4.1049    -0.3755     1.2201 H       
  34 H34            6.6602     2.9261     0.4179 H       
  35 H35            7.1687     7.0721    -0.4945 H       
  36 H36            4.7298     7.3826    -0.4714 H       
  37 H37            3.2452     5.4761    -0.0152 H       
  38 H38            2.6865    -1.6124     2.0653 H       
  39 H39            0.9731    -2.0672     2.2258 H       
  40 H40            2.0618    -1.8042    -0.6191 H       
  41 H41            0.1284    -3.7652     0.8821 H       
  42 H42            0.4515    -3.7392    -0.9335 H       
  43 H43            8.6362     2.7232     0.0867 H       
  44 H44            8.2073     3.3359    -1.5268 H       
  45 H45            8.5535     5.8558     1.7583 H       
  46 H46            8.8257     4.1030     1.8854 H       
  47 H47           10.7302     6.0787     0.5454 H       
  48 H48           10.9398     5.3983     2.1800 H       
  49 H49           10.5512     2.5694    -1.5080 H       
  50 H50           10.4911     4.3381    -1.7236 H       
@<TRIPOS>BOND
   1    1    2 1
   2    1    5 1
   3    2    3 am
   4    2   10 2
   5    3    4 1
   6    3   17 1
   7    4    5 ar
   8    4    9 ar
   9    5    6 ar
  10    6    7 ar
  11    6   31 1
  12    7    8 ar
  13    7   11 1
  14    8    9 ar
  15    8   32 1
  16    9   33 1
  17   11   12 ar
  18   11   16 ar
  19   12   13 ar
  20   12   34 1
  21   13   14 ar
  22   13   23 1
  23   14   15 ar
  24   14   35 1
  25   15   16 ar
  26   15   36 1
  27   16   37 1
  28   17   18 1
  29   17   38 1
  30   17   39 1
  31   18   19 1
  32   18   20 1
  33   18   40 1
  34   19   20 1
  35   19   21 1
  36   19   22 1
  37   20   41 1
  38   20   42 1
  39   23   24 1
  40   23   25 1
  41   24   27 1
  42   24   43 1
  43   24   44 1
  44   25   26 1
  45   25   45 1
  46   25   46 1
  47   26   28 1
  48   26   47 1
  49   26   48 1
  50   27   28 1
  51   27   49 1
  52   27   50 1
  53   28   29 2
  54   28   30 2

#	End of record

