#	Name: ASD08170037
#	Creating user name:	WinNT
#	Creation time:	15. 06. 2019 21:17

#	Modifying user name:	WinNT
#	Modification time:	15. 06. 2019 21:17

#	Program:	/corina/corina34_cracker 3.40 0067  02.08.2006

@<TRIPOS>MOLECULE
ASD08170037
  71   74    0    0    0
SMALL
NO_CHARGES


@<TRIPOS>ATOM
   1 C1            -0.0184     1.5028     0.0103 C.3     
   2 C2             0.0021    -0.0041     0.0020 C.2     
   3 C3            -1.1370    -2.0844     0.0017 C.2     
   4 N4            -0.0714    -2.8270    -0.0120 N.2     
   5 N5            -0.2299    -4.0795    -0.0121 N.2     
   6 C6            -1.4517    -4.5090     0.0016 C.2     
   7 S7            -2.5151    -3.1018     0.0163 S.3     
   8 C8            -1.8867    -5.9519     0.0039 C.3     
   9 C9            -2.0174    -6.4428     1.4471 C.3     
  10 C10           -2.4590    -7.9077     1.4495 C.3     
  11 C11           -2.5897    -8.3986     2.8928 C.3     
  12 C12           -3.0246    -9.8415     2.8951 C.2     
  13 O13            1.0605    -0.5961    -0.0113 O.2     
  14 N14           -1.1558    -0.6938     0.0094 N.am    
  15 C15            1.3954     2.0244    -0.0004 C.ar    
  16 C16            2.0324     2.2701    -1.2024 C.ar    
  17 C17            3.3293     2.7485    -1.2122 C.ar    
  18 C18            3.9890     2.9817    -0.0200 C.ar    
  19 C19            3.3517     2.7369     1.1820 C.ar    
  20 C20            2.0533     2.2626     1.1918 C.ar    
  21 O21           -3.2117   -10.4201     1.8458 O.2     
  22 N22           -3.2058   -10.4888     4.0633 N.am    
  23 H23           -3.0561   -10.0259     4.9025 H       
  24 C24           -3.6286   -11.8914     4.0656 C.3     
  25 C25           -3.7593   -12.3823     5.5088 C.3     
  26 N26           -4.1833   -13.7888     5.5111 N.3     
  27 C27           -4.0918   -14.3638     6.8592 C.3     
  28 C28           -4.3998   -15.8616     6.7984 C.3     
  29 C29           -5.8072   -16.0657     6.2306 C.3     
  30 C30           -5.8899   -15.4156     4.8467 C.3     
  31 C31           -5.5387   -13.9307     4.9642 C.3     
  32 C32           -6.0935   -17.5405     6.1122 C.ar    
  33 C33           -7.1559   -18.0957     6.8007 C.ar    
  34 C34           -7.4185   -19.4485     6.6921 C.ar    
  35 C35           -6.6190   -20.2460     5.8947 C.ar    
  36 C36           -5.5572   -19.6906     5.2055 C.ar    
  37 C37           -5.2972   -18.3370     5.3107 C.ar    
  38 H38           -0.5455     1.8639    -0.8728 H       
  39 H39           -0.5286     1.8543     0.9071 H       
  40 H40           -2.8495    -6.0420    -0.4991 H       
  41 H41           -1.1454    -6.5557    -0.5195 H       
  42 H42           -1.0546    -6.3528     1.9501 H       
  43 H43           -2.7586    -5.8390     1.9706 H       
  44 H44           -3.4218    -7.9977     0.9466 H       
  45 H45           -1.7177    -8.5115     0.9261 H       
  46 H46           -1.6268    -8.3085     3.3957 H       
  47 H47           -3.3309    -7.7948     3.4162 H       
  48 H48           -2.0023    -0.2203     0.0200 H       
  49 H49            1.5170     2.0879    -2.1338 H       
  50 H50            3.8272     2.9397    -2.1513 H       
  51 H51            5.0025     3.3548    -0.0277 H       
  52 H52            3.8673     2.9187     2.1134 H       
  53 H53            1.5554     2.0713     2.1309 H       
  54 H54           -4.5914   -11.9815     3.5626 H       
  55 H55           -2.8873   -12.4952     3.5421 H       
  56 H56           -2.7965   -12.2923     6.0118 H       
  57 H57           -4.5006   -11.7785     6.0323 H       
  58 H58           -3.0850   -14.2157     7.2497 H       
  59 H59           -4.8111   -13.8714     7.5137 H       
  60 H60           -3.6725   -16.3569     6.1550 H       
  61 H61           -4.3471   -16.2850     7.8014 H       
  62 H62           -6.5382   -15.6039     6.8943 H       
  63 H63           -5.1861   -15.9038     4.1727 H       
  64 H64           -6.9018   -15.5204     4.4554 H       
  65 H65           -6.2512   -13.4404     5.6275 H       
  66 H66           -5.5828   -13.4680     3.9782 H       
  67 H67           -7.7804   -17.4727     7.4237 H       
  68 H68           -8.2481   -19.8825     7.2305 H       
  69 H69           -6.8238   -21.3031     5.8104 H       
  70 H70           -4.9325   -20.3137     4.5828 H       
  71 H71           -4.4699   -17.9023     4.7693 H       
@<TRIPOS>BOND
   1    1    2 1
   2    1   15 1
   3    1   38 1
   4    1   39 1
   5    2   13 2
   6    2   14 am
   7    3    4 2
   8    3    7 1
   9    3   14 1
  10    4    5 1
  11    5    6 2
  12    6    7 1
  13    6    8 1
  14    8    9 1
  15    8   40 1
  16    8   41 1
  17    9   10 1
  18    9   42 1
  19    9   43 1
  20   10   11 1
  21   10   44 1
  22   10   45 1
  23   11   12 1
  24   11   46 1
  25   11   47 1
  26   12   21 2
  27   12   22 am
  28   14   48 1
  29   15   16 ar
  30   15   20 ar
  31   16   17 ar
  32   16   49 1
  33   17   18 ar
  34   17   50 1
  35   18   19 ar
  36   18   51 1
  37   19   20 ar
  38   19   52 1
  39   20   53 1
  40   22   23 1
  41   22   24 1
  42   24   25 1
  43   24   54 1
  44   24   55 1
  45   25   26 1
  46   25   56 1
  47   25   57 1
  48   26   27 1
  49   26   31 1
  50   27   28 1
  51   27   58 1
  52   27   59 1
  53   28   29 1
  54   28   60 1
  55   28   61 1
  56   29   30 1
  57   29   32 1
  58   29   62 1
  59   30   31 1
  60   30   63 1
  61   30   64 1
  62   31   65 1
  63   31   66 1
  64   32   33 ar
  65   32   37 ar
  66   33   34 ar
  67   33   67 1
  68   34   35 ar
  69   34   68 1
  70   35   36 ar
  71   35   69 1
  72   36   37 ar
  73   36   70 1
  74   37   71 1

#	End of record

