#	Name: ASD07300419
#	Creating user name:	WinNT
#	Creation time:	15. 06. 2019 21:09

#	Modifying user name:	WinNT
#	Modification time:	15. 06. 2019 21:09

#	Program:	/corina/corina34_cracker 3.40 0067  02.08.2006

@<TRIPOS>MOLECULE
ASD07300419
  52   57    0    0    0
SMALL
NO_CHARGES


@<TRIPOS>ATOM
   1 C1            -0.0173     1.3942    -0.0096 C.ar    
   2 C2             0.0017    -0.0040    -0.0195 C.ar    
   3 C3             1.2195    -0.6672    -0.0396 C.ar    
   4 C4             2.3803     0.0925    -0.0490 C.ar    
   5 C5             2.2874     1.4714    -0.0383 C.ar    
   6 N6             1.1157     2.0769    -0.0193 N.ar    
   7 C7            -2.1141     0.6623     0.0208 C.2     
   8 N8            -1.3545     1.7734     0.0156 N.am    
   9 N9            -1.3238    -0.4278    -0.0057 N.am    
  10 O10           -3.3306     0.6454     0.0412 O.2     
  11 C11           -1.7805    -1.8198    -0.0100 C.3     
  12 C12           -2.6088    -2.0887     1.2481 C.3     
  13 C13           -2.6407    -2.0705    -1.2502 C.3     
  14 N14           -3.4560     6.9323     0.0909 N.pl3   
  15 C15           -4.9041     6.7095     0.1136 C.3     
  16 C16           -5.0772     5.1819     0.1043 C.3     
  17 C17           -3.6662     4.6387     0.0760 C.ar    
  18 C18           -3.1974     3.3395     0.0580 C.ar    
  19 C19           -1.8319     3.0926     0.0334 C.ar    
  20 C20           -0.9405     4.1572     0.0269 C.ar    
  21 C21           -1.4092     5.4525     0.0448 C.ar    
  22 C22           -2.7824     5.7062     0.0697 C.ar    
  23 C23           -2.5426    10.3633     0.0246 C.ar    
  24 C24           -1.3032     9.7066     0.1297 C.ar    
  25 C25           -0.1345    10.4708     0.1831 C.ar    
  26 C26           -0.2518    11.8479     0.1297 C.ar    
  27 C27           -1.5075    12.4226     0.0263 C.ar    
  28 N28           -2.5978    11.6836    -0.0227 N.ar    
  29 C29           -2.8463     8.1699     0.0853 C.2     
  30 N30           -3.4999     9.3670    -0.0013 N.pl3   
  31 N31           -1.5541     8.3727     0.1573 N.2     
  32 H32            1.2630    -1.7463    -0.0472 H       
  33 H33            3.3470    -0.3889    -0.0642 H       
  34 H34            3.1904     2.0639    -0.0453 H       
  35 H35           -0.9174    -2.4853    -0.0258 H       
  36 H36           -2.9485    -3.1244     1.2449 H       
  37 H37           -1.9959    -1.9101     2.1316 H       
  38 H38           -3.4719    -1.4232     1.2639 H       
  39 H39           -2.0506    -1.8790    -2.1464 H       
  40 H40           -2.9805    -3.1062    -1.2533 H       
  41 H41           -3.5038    -1.4050    -1.2343 H       
  42 H42           -5.3377     7.1336     1.0193 H       
  43 H43           -5.3680     7.1480    -0.7699 H       
  44 H44           -5.5935     4.8523     1.0059 H       
  45 H45           -5.6238     4.8668    -0.7846 H       
  46 H46           -3.8944     2.5146     0.0636 H       
  47 H47            0.1229     3.9693     0.0080 H       
  48 H48           -0.7109     6.2764     0.0400 H       
  49 H49            0.8337     9.9992     0.2642 H       
  50 H50            0.6296    12.4707     0.1688 H       
  51 H51           -1.5952    13.4983    -0.0148 H       
  52 H52           -4.4592     9.4939    -0.0682 H       
@<TRIPOS>BOND
   1    1    2 ar
   2    1    6 ar
   3    1    8 1
   4    2    3 ar
   5    2    9 1
   6    3    4 ar
   7    3   32 1
   8    4    5 ar
   9    4   33 1
  10    5    6 ar
  11    5   34 1
  12    7    8 am
  13    7    9 am
  14    7   10 2
  15    8   19 1
  16    9   11 1
  17   11   12 1
  18   11   13 1
  19   11   35 1
  20   12   36 1
  21   12   37 1
  22   12   38 1
  23   13   39 1
  24   13   40 1
  25   13   41 1
  26   14   15 1
  27   14   22 1
  28   14   29 1
  29   15   16 1
  30   15   42 1
  31   15   43 1
  32   16   17 1
  33   16   44 1
  34   16   45 1
  35   17   18 ar
  36   17   22 ar
  37   18   19 ar
  38   18   46 1
  39   19   20 ar
  40   20   21 ar
  41   20   47 1
  42   21   22 ar
  43   21   48 1
  44   23   24 ar
  45   23   28 ar
  46   23   30 1
  47   24   25 ar
  48   24   31 1
  49   25   26 ar
  50   25   49 1
  51   26   27 ar
  52   26   50 1
  53   27   28 ar
  54   27   51 1
  55   29   30 1
  56   29   31 2
  57   30   52 1

#	End of record

