#	Name: ASD01812598
#	Creating user name:	WinNT
#	Creation time:	15. 06. 2019 19:28

#	Modifying user name:	WinNT
#	Modification time:	15. 06. 2019 19:28

#	Program:	/corina/corina34_cracker 3.40 0067  02.08.2006

@<TRIPOS>MOLECULE
ASD01812598
  44   48    0    0    0
SMALL
NO_CHARGES


@<TRIPOS>ATOM
   1 C1            -0.0178     1.4608     0.0101 C.3     
   2 N2             0.0021    -0.0041     0.0020 N.pl3   
   3 C3             0.0074    -0.7668    -1.0996 C.2     
   4 C4             0.0281    -2.0910    -0.6990 C.ar    
   5 C5             0.0415    -3.3295    -1.3713 C.ar    
   6 C6             0.0609    -4.4956    -0.6383 C.ar    
   7 C7             0.0672    -4.4746     0.7688 C.ar    
   8 C8             0.0544    -3.3127     1.4628 C.ar    
   9 C9             0.0352    -2.0804     0.7725 C.ar    
  10 N10            0.0244    -0.8130     1.1436 N.2     
  11 C11            0.0751    -5.7991    -1.3460 C.ar    
  12 C12            0.0745    -5.8384    -2.7391 C.ar    
  13 C13            0.0877    -7.0535    -3.3937 C.ar    
  14 C14            0.1010    -8.2320    -2.6705 C.ar    
  15 C15            0.1153    -9.5553    -3.3914 C.3     
  16 N16            1.4560   -10.1404    -3.3115 N.am    
  17 C17            2.5426    -9.9224    -4.2742 C.3     
  18 C18            3.7167   -10.7232    -3.7744 C.ar    
  19 N19            4.9441   -10.9195    -4.2054 N.ar    
  20 C20            5.7744   -11.6993    -3.5360 C.ar    
  21 N21            5.4192   -12.3085    -2.4218 N.ar    
  22 C22            4.2034   -12.1643    -1.9203 C.ar    
  23 C23            3.2932   -11.3485    -2.5962 C.ar    
  24 C24            1.8961   -10.9612    -2.3409 C.2     
  25 O25            1.2344   -11.3318    -1.3910 O.2     
  26 C26            0.1017    -8.2002    -1.2852 C.ar    
  27 F27            0.1152    -9.3548    -0.5838 F       
  28 C28            0.0948    -6.9886    -0.6201 C.ar    
  29 H29            1.0048     1.8381     0.0023 H       
  30 H30           -0.5450     1.8219    -0.8730 H       
  31 H31           -0.5280     1.8123     0.9069 H       
  32 H32           -0.0030    -0.4111    -2.1193 H       
  33 H33            0.0363    -3.3640    -2.4507 H       
  34 H34            0.0822    -5.4097     1.3089 H       
  35 H35            0.0596    -3.3277     2.5427 H       
  36 H36            0.0634    -4.9191    -3.3058 H       
  37 H37            0.0872    -7.0840    -4.4733 H       
  38 H38           -0.6038   -10.2299    -2.9267 H       
  39 H39           -0.1528    -9.4025    -4.4368 H       
  40 H40            2.2436   -10.2729    -5.2620 H       
  41 H41            2.8008    -8.8642    -4.3141 H       
  42 H42            6.7761   -11.8425    -3.9136 H       
  43 H43            3.9206   -12.6672    -1.0074 H       
  44 H44            0.1002    -6.9638     0.4596 H       
@<TRIPOS>BOND
   1    1    2 1
   2    1   29 1
   3    1   30 1
   4    1   31 1
   5    2   10 1
   6    2    3 1
   7    3    4 2
   8    3   32 1
   9    4    9 ar
  10    4    5 ar
  11    5    6 ar
  12    5   33 1
  13    6    7 ar
  14    6   11 1
  15    7    8 ar
  16    7   34 1
  17    8    9 ar
  18    8   35 1
  19    9   10 2
  20   11   28 ar
  21   11   12 ar
  22   12   13 ar
  23   12   36 1
  24   13   14 ar
  25   13   37 1
  26   14   15 1
  27   14   26 ar
  28   15   16 1
  29   15   38 1
  30   15   39 1
  31   16   24 am
  32   16   17 1
  33   17   18 1
  34   17   40 1
  35   17   41 1
  36   18   23 ar
  37   18   19 ar
  38   19   20 ar
  39   20   21 ar
  40   20   42 1
  41   21   22 ar
  42   22   23 ar
  43   22   43 1
  44   23   24 1
  45   24   25 2
  46   26   27 1
  47   26   28 ar
  48   28   44 1

#	End of record

