#	Name: ASD03092927
#	Creating user name:	WinNT
#	Creation time:	15. 06. 2019 20:33

#	Modifying user name:	WinNT
#	Modification time:	15. 06. 2019 20:33

#	Program:	/corina/corina34_cracker 3.40 0067  02.08.2006

@<TRIPOS>MOLECULE
ASD03092927
  38   40    0    0    0
SMALL
NO_CHARGES


@<TRIPOS>ATOM
   1 C1             0.9696     1.3796    -0.0496 C.3     
   2 C2             0.7416    -0.1100    -0.0411 C.ar    
   3 C3             0.6559    -0.8021    -1.2401 C.ar    
   4 C4             0.4481    -2.1644    -1.2512 C.ar    
   5 C5             0.3224    -2.8569    -0.0517 C.ar    
   6 N6             0.1143    -4.1862     0.2539 N.pl3   
   7 C7            -0.0323    -5.2578    -0.7342 C.3     
   8 C8             0.0653    -4.3607     1.5964 C.2     
   9 C9             0.2378    -3.1622     2.2242 C.2     
  10 C10            0.2506    -2.9224     3.6731 C.2     
  11 O11            0.4159    -1.7958     4.1019 O.2     
  12 N12            0.0794    -3.9504     4.5278 N.am    
  13 C13            0.1888    -3.7402     5.9021 C.ar    
  14 C14           -0.2326    -2.5428     6.4781 C.ar    
  15 C15           -0.1071    -2.3742     7.8416 C.ar    
  16 N16            0.4035    -3.3281     8.5970 N.ar    
  17 C17            0.8136    -4.4754     8.0894 C.ar    
  18 C18            0.7172    -4.7246     6.7364 C.ar    
  19 C19            1.3886    -5.5289     9.0008 C.3     
  20 F20            1.2766    -5.1072    10.3300 F       
  21 F21            0.6859    -6.7266     8.8308 F       
  22 F22            2.7371    -5.7309     8.6876 F       
  23 C23            0.4093    -2.1547     1.1613 C.ar    
  24 C24            0.6247    -0.7791     1.1579 C.ar    
  25 H25            2.0404     1.5833    -0.0394 H       
  26 H26            0.5264     1.8100    -0.9476 H       
  27 H27            0.5070     1.8231     0.8322 H       
  28 H28            0.7527    -0.2682    -2.1739 H       
  29 H29            0.3827    -2.6936    -2.1904 H       
  30 H30            0.9471    -5.6786    -0.9619 H       
  31 H31           -0.6781    -6.0379    -0.3310 H       
  32 H32           -0.4751    -4.8543    -1.6448 H       
  33 H33           -0.0875    -5.3067     2.0947 H       
  34 H34           -0.1200    -4.8364     4.1870 H       
  35 H35           -0.6510    -1.7579     5.8655 H       
  36 H36           -0.4306    -1.4496     8.2965 H       
  37 H37            1.0504    -5.6673     6.3281 H       
  38 H38            0.6959    -0.2386     2.0902 H       
@<TRIPOS>BOND
   1    1    2 1
   2    1   25 1
   3    1   26 1
   4    1   27 1
   5    2   24 ar
   6    2    3 ar
   7    3    4 ar
   8    3   28 1
   9    4    5 ar
  10    4   29 1
  11    5   23 ar
  12    5    6 1
  13    6    7 1
  14    6    8 1
  15    7   30 1
  16    7   31 1
  17    7   32 1
  18    8    9 2
  19    8   33 1
  20    9   10 1
  21    9   23 1
  22   10   11 2
  23   10   12 am
  24   12   13 1
  25   12   34 1
  26   13   18 ar
  27   13   14 ar
  28   14   15 ar
  29   14   35 1
  30   15   16 ar
  31   15   36 1
  32   16   17 ar
  33   17   18 ar
  34   17   19 1
  35   18   37 1
  36   19   20 1
  37   19   21 1
  38   19   22 1
  39   23   24 ar
  40   24   38 1

#	End of record

