#	Name: ASD01916144
#	Creating user name:	WinNT
#	Creation time:	15. 06. 2019 20:06

#	Modifying user name:	WinNT
#	Modification time:	15. 06. 2019 20:06

#	Program:	/corina/corina34_cracker 3.40 0067  02.08.2006

@<TRIPOS>MOLECULE
ASD01916144
  45   48    0    0    0
SMALL
NO_CHARGES


@<TRIPOS>ATOM
   1 C1             0.0789     1.3898    -0.0558 C.ar    
   2 C2             0.0839     0.0084    -0.0559 C.ar    
   3 C3             1.2885    -0.6797    -0.0539 C.ar    
   4 C4             2.4854     0.0218    -0.0517 C.ar    
   5 C5             2.4750     1.4032    -0.0516 C.ar    
   6 C6             1.2731     2.0866    -0.0536 C.ar    
   7 O7             1.2961    -2.0387    -0.0535 O.3     
   8 C8             2.5730    -2.6803    -0.0514 C.3     
   9 C9             2.3839    -4.1754    -0.0513 C.2     
  10 C10            1.1548    -4.8473    -0.0530 C.2     
  11 N11            3.3408    -5.0703    -0.0553 N.2     
  12 N12            2.7523    -6.3378    -0.0581 N.pl3   
  13 C13            1.4097    -6.1694    -0.0516 C.2     
  14 C14            3.4350    -7.6345    -0.0755 C.3     
  15 C15            2.4617    -8.7241     0.3871 C.3     
  16 N16            1.1724    -8.5444    -0.2975 N.am    
  17 C17            0.4154    -7.3062    -0.0384 C.3     
  18 C18            0.6971    -9.4825    -1.1404 C.2     
  19 C19           -0.6581    -9.3420    -1.7149 C.ar    
  20 O20            1.3825   -10.4441    -1.4284 O.2     
  21 C21           -0.9148    -9.7767    -3.0170 C.ar    
  22 C22           -2.1799    -9.6463    -3.5553 C.ar    
  23 C23           -3.1989    -9.0855    -2.8118 C.ar    
  24 C24           -2.9560    -8.6462    -1.5075 C.ar    
  25 C25           -1.6832    -8.7807    -0.9562 C.ar    
  26 C26           -4.0139    -8.0643    -0.7375 C.1     
  27 N27           -4.8531    -7.6026    -0.1267 N.1     
  28 H28           -0.8587     1.9259    -0.0619 H       
  29 H29           -0.8492    -0.5355    -0.0572 H       
  30 H30            3.4245    -0.5116    -0.0498 H       
  31 H31            3.4065     1.9498    -0.0496 H       
  32 H32            1.2670     3.1666    -0.0535 H       
  33 H33            3.1297    -2.3846    -0.9406 H       
  34 H34            3.1270    -2.3841     0.8394 H       
  35 H35            0.1777    -4.3873    -0.0551 H       
  36 H36            3.7730    -7.8543    -1.0882 H       
  37 H37            4.2927    -7.6033     0.5964 H       
  38 H38            2.8701    -9.7047     0.1426 H       
  39 H39            2.3155    -8.6482     1.4645 H       
  40 H40           -0.0677    -7.3628     0.9370 H       
  41 H41           -0.3329    -7.1580    -0.8171 H       
  42 H42           -0.1220   -10.2157    -3.6045 H       
  43 H43           -2.3728    -9.9842    -4.5628 H       
  44 H44           -4.1857    -8.9858    -3.2390 H       
  45 H45           -1.4900    -8.4432     0.0513 H       
@<TRIPOS>BOND
   1    1    2 ar
   2    1    6 ar
   3    1   28 1
   4    2    3 ar
   5    2   29 1
   6    3    4 ar
   7    3    7 1
   8    4    5 ar
   9    4   30 1
  10    5    6 ar
  11    5   31 1
  12    6   32 1
  13    7    8 1
  14    8    9 1
  15    8   33 1
  16    8   34 1
  17    9   10 1
  18    9   11 2
  19   10   13 2
  20   10   35 1
  21   11   12 1
  22   12   13 1
  23   12   14 1
  24   13   17 1
  25   14   15 1
  26   14   36 1
  27   14   37 1
  28   15   16 1
  29   15   38 1
  30   15   39 1
  31   16   17 1
  32   16   18 am
  33   17   40 1
  34   17   41 1
  35   18   19 1
  36   18   20 2
  37   19   21 ar
  38   19   25 ar
  39   21   22 ar
  40   21   42 1
  41   22   23 ar
  42   22   43 1
  43   23   24 ar
  44   23   44 1
  45   24   25 ar
  46   24   26 1
  47   25   45 1
  48   26   27 3

#	End of record

