#	Name: ASD01916170
#	Creating user name:	WinNT
#	Creation time:	15. 06. 2019 20:06

#	Modifying user name:	WinNT
#	Modification time:	15. 06. 2019 20:06

#	Program:	/corina/corina34_cracker 3.40 0067  02.08.2006

@<TRIPOS>MOLECULE
ASD01916170
  48   51    0    0    0
SMALL
NO_CHARGES


@<TRIPOS>ATOM
   1 C1             2.0744     0.7076    -4.8862 C.ar    
   2 C2             1.8387    -0.5143    -4.2863 C.ar    
   3 C3             2.9010    -1.3539    -3.9845 C.ar    
   4 C4             4.1977    -0.9640    -4.2861 C.ar    
   5 C5             4.4282     0.2589    -4.8861 C.ar    
   6 C6             3.3677     1.0939    -5.1858 C.ar    
   7 O7             2.6717    -2.5563    -3.3939 O.3     
   8 C8             3.8130    -3.3687    -3.1121 C.3     
   9 C9             3.3670    -4.6535    -2.4629 C.2     
  10 C10            2.0439    -5.0109    -2.1737 C.2     
  11 N11            4.1497    -5.6307    -2.0769 N.2     
  12 N12            3.3513    -6.6385    -1.5295 N.pl3   
  13 C13            2.0638    -6.2278    -1.5980 C.2     
  14 C14            3.7939    -7.9236    -0.9814 C.3     
  15 C15            2.6874    -8.5016    -0.0923 C.3     
  16 N16            1.3968    -8.3858    -0.7881 N.am    
  17 C17            0.8912    -7.0350    -1.0933 C.3     
  18 C18            0.6971    -9.4825    -1.1404 C.2     
  19 C19           -0.6582    -9.3419    -1.7149 C.ar    
  20 O20            1.1801   -10.5872    -0.9859 O.2     
  21 C21           -1.4860    -8.2945    -1.3058 C.ar    
  22 C22           -3.2098    -9.0645    -2.7849 C.ar    
  23 C23           -2.3877   -10.1126    -3.2066 C.ar    
  24 C24           -1.1093   -10.2511    -2.6694 C.ar    
  25 C25           -2.7543    -8.1618    -1.8418 C.ar    
  26 C26            2.9817    -9.9749     0.1970 C.3     
  27 H27            2.6466    -7.9469     0.8451 H       
  28 F28           -3.5510    -7.1467    -1.4420 F       
  29 C29           -2.8605   -11.0469    -4.1834 C.1     
  30 N30           -3.2356   -11.7881    -4.9583 N.1     
  31 H31            1.2474     1.3597    -5.1254 H       
  32 H32            0.8283    -0.8154    -4.0521 H       
  33 H33            5.0264    -1.6157    -4.0519 H       
  34 H34            5.4375     0.5630    -5.1208 H       
  35 H35            3.5499     2.0496    -5.6548 H       
  36 H36            4.3370    -3.5939    -4.0410 H       
  37 H37            4.4821    -2.8341    -2.4379 H       
  38 H38            1.1651    -4.4167    -2.3763 H       
  39 H39            4.0031    -8.6148    -1.7978 H       
  40 H40            4.6966    -7.7751    -0.3888 H       
  41 H41            0.4883    -6.5760    -0.1905 H       
  42 H42            0.1183    -7.0916    -1.8597 H       
  43 H43           -1.1355    -7.5867    -0.5692 H       
  44 H44           -4.2008    -8.9560    -3.2004 H       
  45 H45           -0.4704   -11.0599    -2.9922 H       
  46 H46            3.9403   -10.0602     0.7087 H       
  47 H47            2.1944   -10.3853     0.8293 H       
  48 H48            3.0200   -10.5287    -0.7411 H       
@<TRIPOS>BOND
   1    1    2 ar
   2    1    6 ar
   3    1   31 1
   4    2    3 ar
   5    2   32 1
   6    3    4 ar
   7    3    7 1
   8    4    5 ar
   9    4   33 1
  10    5    6 ar
  11    5   34 1
  12    6   35 1
  13    7    8 1
  14    8    9 1
  15    8   36 1
  16    8   37 1
  17    9   10 1
  18    9   11 2
  19   10   13 2
  20   10   38 1
  21   11   12 1
  22   12   13 1
  23   12   14 1
  24   13   17 1
  25   14   15 1
  26   14   39 1
  27   14   40 1
  28   15   16 1
  29   15   26 1
  30   15   27 1
  31   16   17 1
  32   16   18 am
  33   17   41 1
  34   17   42 1
  35   18   19 1
  36   18   20 2
  37   19   21 ar
  38   19   24 ar
  39   21   25 ar
  40   21   43 1
  41   22   23 ar
  42   22   25 ar
  43   22   44 1
  44   23   24 ar
  45   23   29 1
  46   24   45 1
  47   25   28 1
  48   26   46 1
  49   26   47 1
  50   26   48 1
  51   29   30 3

#	End of record

