#	Name: ASD04910069
#	Creating user name:	WinNT
#	Creation time:	15. 06. 2019 20:55

#	Modifying user name:	WinNT
#	Modification time:	15. 06. 2019 20:55

#	Program:	/corina/corina34_cracker 3.40 0067  02.08.2006

@<TRIPOS>MOLECULE
ASD04910069
  39   40    0    0    0
SMALL
NO_CHARGES


@<TRIPOS>ATOM
   1 C1            -0.0187     1.5258     0.0104 C.3     
   2 C2             0.0021    -0.0041     0.0020 C.3     
   3 C3             0.6310    -0.5127     1.3007 C.3     
   4 C4            -0.2589    -0.1265     2.4838 C.3     
   5 N5             1.3595     2.0342     0.0000 N.3     
   6 C6            -0.7475     2.0250    -1.2105 C.ar    
   7 C7            -2.0649     2.4328    -1.1089 C.ar    
   8 C8            -2.7356     2.8908    -2.2261 C.ar    
   9 C9            -2.0856     2.9419    -3.4519 C.ar    
  10 C10           -0.7627     2.5322    -3.5506 C.ar    
  11 C11           -0.0958     2.0797    -2.4288 C.ar    
  12 N12           -2.7637     3.4059    -4.5876 N.pl3   
  13 N13           -4.0922     3.8480    -4.6314 N.2     
  14 C14           -4.3657     4.2009    -5.8616 C.2     
  15 C15           -3.2219     3.9954    -6.6408 C.2     
  16 C16           -2.2494     3.5114    -5.8338 C.2     
  17 C17           -3.0937     4.2701    -8.1170 C.3     
  18 F18           -4.3057     4.7702    -8.6053 F       
  19 F19           -2.0812     5.2117    -8.3299 F       
  20 F20           -2.7754     3.0836    -8.7863 F       
  21 C21            0.7659    -2.0356     1.2398 C.3     
  22 H22           -0.5289     1.8773     0.9072 H       
  23 H23           -1.0175    -0.3808    -0.0798 H       
  24 H24            0.5883    -0.3548    -0.8473 H       
  25 H25            1.6170    -0.0654     1.4265 H       
  26 H26            0.1891    -0.4889     3.4090 H       
  27 H27           -0.3550     0.9584     2.5272 H       
  28 H28           -1.2449    -0.5739     2.3580 H       
  29 H29            1.8539     1.7219    -0.8222 H       
  30 H30            1.3741     3.0407     0.0702 H       
  31 H31           -2.5700     2.3928    -0.1552 H       
  32 H32           -3.7647     3.2085    -2.1464 H       
  33 H33           -0.2544     2.5709    -4.5027 H       
  34 H34            0.9343     1.7644    -2.5042 H       
  35 H35           -5.3117     4.5841    -6.2147 H       
  36 H36           -1.2439     3.2537    -6.1319 H       
  37 H37            1.3999    -2.3107     0.3969 H       
  38 H38            1.2140    -2.3979     2.1650 H       
  39 H39           -0.2201    -2.4829     1.1140 H       
@<TRIPOS>BOND
   1    1    2 1
   2    1    5 1
   3    1    6 1
   4    1   22 1
   5    2    3 1
   6    2   23 1
   7    2   24 1
   8    3    4 1
   9    3   21 1
  10    3   25 1
  11    4   26 1
  12    4   27 1
  13    4   28 1
  14    5   29 1
  15    5   30 1
  16    6    7 ar
  17    6   11 ar
  18    7    8 ar
  19    7   31 1
  20    8    9 ar
  21    8   32 1
  22    9   10 ar
  23    9   12 1
  24   10   11 ar
  25   10   33 1
  26   11   34 1
  27   12   13 1
  28   12   16 1
  29   13   14 2
  30   14   15 1
  31   14   35 1
  32   15   16 2
  33   15   17 1
  34   16   36 1
  35   17   18 1
  36   17   19 1
  37   17   20 1
  38   21   37 1
  39   21   38 1
  40   21   39 1

#	End of record

