#	Name: ASD02560110
#	Creating user name:	WinNT
#	Creation time:	15. 06. 2019 20:24

#	Modifying user name:	WinNT
#	Modification time:	15. 06. 2019 20:24

#	Program:	/corina/corina34_cracker 3.40 0067  02.08.2006

@<TRIPOS>MOLECULE
ASD02560110
  58   62    0    0    0
SMALL
NO_CHARGES


@<TRIPOS>ATOM
   1 N1             0.0362     1.2996     0.0543 N.2     
   2 N2            -0.0005     0.0666    -0.0058 N.2     
   3 C3             1.4204     1.7904     0.0586 C.3     
   4 N4             2.2432     0.5992     0.3881 N.3     
   5 C5             1.3522    -0.5035    -0.0532 C.3     
   6 S6             1.4834    -1.9138     1.0801 S.3     
   7 C7             0.9675    -1.2090     2.6700 C.3     
   8 C8             1.0234    -2.2749     3.7338 C.2     
   9 O9             1.3765    -3.3994     3.4476 O.2     
  10 N10            0.6810    -1.9787     5.0032 N.am    
  11 Br11           1.9049     2.4879    -1.7145 Br      
  12 C12            3.4337     0.5990    -0.3355 C.ar    
  13 C13            0.6513    -2.9871     5.9736 C.ar    
  14 C14           -0.1697    -2.8577     7.0878 C.ar    
  15 C15           -0.1966    -3.8555     8.0434 C.ar    
  16 C16            0.5920    -4.9814     7.8916 C.ar    
  17 C17            1.4094    -5.1126     6.7844 C.ar    
  18 C18            1.4373    -4.1212     5.8225 C.ar    
  19 Cl19          -1.1593    -1.4442     7.2788 Cl      
  20 S20            0.5553    -6.2514     9.1125 S.o2    
  21 O21            1.7882    -6.9493     9.0027 O.2     
  22 O22            0.1138    -5.6383    10.3160 O.2     
  23 C23            3.4158     0.4246    -1.7360 C.ar    
  24 C24            4.6398     0.7750     0.3092 C.ar    
  25 C25            5.8343     0.7769    -0.4044 C.ar    
  26 C26            5.8465     0.6061    -1.7553 C.ar    
  27 C27            4.6388     0.4284    -2.4512 C.ar    
  28 C28            4.6214     0.2494    -3.8454 C.ar    
  29 C29            3.4336     0.0795    -4.4878 C.ar    
  30 C30            2.2310     0.0802    -3.7839 C.ar    
  31 C31            2.2104     0.2472    -2.4327 C.ar    
  32 C32            7.1542     0.6129    -2.5043 C.3     
  33 C33            8.0098     1.8785    -2.4206 C.3     
  34 C34            8.4418     0.6126    -1.6777 C.3     
  35 O35           -0.5330    -7.2350     8.7069 O.3     
  36 C36            4.6645     0.9679     1.8036 C.3     
  37 H37            1.5474     2.5614     0.8185 H       
  38 H38            1.6002    -0.8081    -1.0700 H       
  39 H39            1.6363    -0.3915     2.9392 H       
  40 H40           -0.0518    -0.8319     2.5866 H       
  41 H41            0.4551    -1.0667     5.2444 H       
  42 H42           -0.8339    -3.7558     8.9096 H       
  43 H43            2.0242    -5.9931     6.6693 H       
  44 H44            2.0762    -4.2247     4.9580 H       
  45 H45            6.7671     0.9166     0.1218 H       
  46 H46            5.5457     0.2469    -4.4039 H       
  47 H47            3.4229    -0.0575    -5.5590 H       
  48 H48            1.3020    -0.0566    -4.3174 H       
  49 H49            1.2709     0.2456    -1.9000 H       
  50 H50            7.1598     0.0629    -3.4454 H       
  51 H51            8.5786     2.1611    -3.3064 H       
  52 H52            7.6268     2.7063    -1.8238 H       
  53 H53            8.3430     0.6076    -0.5922 H       
  54 H54            9.2947     0.0623    -2.0749 H       
  55 H55           -0.6378    -7.9788     9.3159 H       
  56 H56            4.8377     0.0084     2.2910 H       
  57 H57            5.4647     1.6593     2.0675 H       
  58 H58            3.7088     1.3755     2.1332 H       
@<TRIPOS>BOND
   1    1    2 2
   2    1    3 1
   3    2    5 1
   4    3    4 1
   5    3   11 1
   6    3   37 1
   7    4    5 1
   8    4   12 1
   9    5    6 1
  10    5   38 1
  11    6    7 1
  12    7    8 1
  13    7   39 1
  14    7   40 1
  15    8    9 2
  16    8   10 am
  17   10   13 1
  18   10   41 1
  19   12   23 ar
  20   12   24 ar
  21   13   14 ar
  22   13   18 ar
  23   14   15 ar
  24   14   19 1
  25   15   16 ar
  26   15   42 1
  27   16   17 ar
  28   16   20 1
  29   17   18 ar
  30   17   43 1
  31   18   44 1
  32   20   21 2
  33   20   22 2
  34   20   35 1
  35   23   27 ar
  36   23   31 ar
  37   24   25 ar
  38   24   36 1
  39   25   26 ar
  40   25   45 1
  41   26   27 ar
  42   26   32 1
  43   27   28 ar
  44   28   29 ar
  45   28   46 1
  46   29   30 ar
  47   29   47 1
  48   30   31 ar
  49   30   48 1
  50   31   49 1
  51   32   33 1
  52   32   34 1
  53   32   50 1
  54   33   34 1
  55   33   51 1
  56   33   52 1
  57   34   53 1
  58   34   54 1
  59   35   55 1
  60   36   56 1
  61   36   57 1
  62   36   58 1

#	End of record

