#	Name: ASD01917842
#	Creating user name:	WinNT
#	Creation time:	15. 06. 2019 20:10

#	Modifying user name:	WinNT
#	Modification time:	15. 06. 2019 20:10

#	Program:	/corina/corina34_cracker 3.40 0067  02.08.2006

@<TRIPOS>MOLECULE
ASD01917842
  42   45    0    0    0
SMALL
NO_CHARGES


@<TRIPOS>ATOM
   1 C1            -0.0159     1.3224     0.0026 C.2     
   2 C2            -0.0104    -0.0237     0.0109 C.2     
   3 C3            -1.2829    -0.8567     0.0256 C.3     
   4 C4            -2.4471     0.0148     0.5024 C.3     
   5 N5            -2.4123     1.2988    -0.2140 N.am    
   6 C6            -1.2577     2.1840     0.0186 C.3     
   7 C7            -3.4039     1.6536    -1.0549 C.2     
   8 O8            -4.2920     0.8651    -1.3146 O.2     
   9 S9             1.6470     1.8922    -0.0220 S.3     
  10 C10            2.2080     0.2777    -0.0144 C.2     
  11 N11            1.2124    -0.5370     0.0034 N.2     
  12 C12            3.6581    -0.1321    -0.0271 C.3     
  13 O13            4.1016    -0.2727    -1.3783 O.3     
  14 C14            5.3961    -0.6405    -1.5677 C.ar    
  15 C15            5.8933    -0.7955    -2.8535 C.ar    
  16 C16            7.2095    -1.1695    -3.0434 C.ar    
  17 C17            8.0312    -1.3893    -1.9532 C.ar    
  18 C18            7.5379    -1.2359    -0.6707 C.ar    
  19 C19            6.2241    -0.8560    -0.4756 C.ar    
  20 C20           -3.4117     3.0008    -1.6611 C.ar    
  21 C21           -3.8852     3.1914    -2.9659 C.ar    
  22 C22           -3.8717     4.4709    -3.4879 C.ar    
  23 C23           -3.3942     5.5158    -2.7106 C.ar    
  24 N24           -2.9533     5.3050    -1.4825 N.ar    
  25 C25           -2.9528     4.1047    -0.9412 C.ar    
  26 F26           -3.3791     6.7684    -3.2168 F       
  27 H27           -1.4900    -1.2233    -0.9798 H       
  28 H28           -1.1580    -1.7008     0.7038 H       
  29 H29           -3.3899    -0.4920     0.2964 H       
  30 H30           -2.3543     0.1927     1.5738 H       
  31 H31           -1.3568     2.6754     0.9865 H       
  32 H32           -1.1986     2.9313    -0.7727 H       
  33 H33            4.2554     0.6298     0.4739 H       
  34 H34            3.7716    -1.0831     0.4934 H       
  35 H35            5.2518    -0.6244    -3.7053 H       
  36 H36            7.5970    -1.2907    -4.0442 H       
  37 H37            9.0599    -1.6816    -2.1038 H       
  38 H38            8.1814    -1.4088     0.1792 H       
  39 H39            5.8392    -0.7363     0.5264 H       
  40 H40           -4.2512     2.3594    -3.5492 H       
  41 H41           -4.2287     4.6553    -4.4904 H       
  42 H42           -2.5845     3.9718     0.0653 H       
@<TRIPOS>BOND
   1    1    2 2
   2    1    9 1
   3    1    6 1
   4    2    3 1
   5    2   11 1
   6    3    4 1
   7    3   27 1
   8    3   28 1
   9    4    5 1
  10    4   29 1
  11    4   30 1
  12    5    6 1
  13    5    7 am
  14    6   31 1
  15    6   32 1
  16    7    8 2
  17    7   20 1
  18    9   10 1
  19   10   11 2
  20   10   12 1
  21   12   13 1
  22   12   33 1
  23   12   34 1
  24   13   14 1
  25   14   15 ar
  26   14   19 ar
  27   15   16 ar
  28   15   35 1
  29   16   17 ar
  30   16   36 1
  31   17   18 ar
  32   17   37 1
  33   18   19 ar
  34   18   38 1
  35   19   39 1
  36   20   21 ar
  37   20   25 ar
  38   21   22 ar
  39   21   40 1
  40   22   23 ar
  41   22   41 1
  42   23   24 ar
  43   23   26 1
  44   24   25 ar
  45   25   42 1

#	End of record

