#	Name: ASD01910860
#	Creating user name:	WinNT
#	Creation time:	15. 06. 2019 19:56

#	Modifying user name:	WinNT
#	Modification time:	15. 06. 2019 19:56

#	Program:	/corina/corina34_cracker 3.40 0067  02.08.2006

@<TRIPOS>MOLECULE
ASD01910860
  56   59    0    0    0
SMALL
NO_CHARGES


@<TRIPOS>ATOM
   1 C1            -0.0168     1.3842     0.0097 C.ar    
   2 C2             0.0021    -0.0041     0.0020 C.ar    
   3 C3             1.2266    -0.6477    -0.0131 C.ar    
   4 C4             2.3908     0.1134    -0.0202 C.ar    
   5 N5             2.3311     1.4363    -0.0120 N.ar    
   6 C6             1.1776     2.0767     0.0020 C.ar    
   7 N7             3.6279    -0.5202    -0.0354 N.3     
   8 C8             4.7221     0.4608    -0.0406 C.3     
   9 C9             6.0630    -0.2742     0.0230 C.3     
  10 N10            6.1729    -1.1874    -1.1231 N.3     
  11 C11            5.0788    -2.1685    -1.1179 C.3     
  12 C12            3.7378    -1.4334    -1.1815 C.3     
  13 C13            7.4803    -1.8571    -1.1392 C.3     
  14 C14            7.4693    -2.9558    -2.1705 C.ar    
  15 C15            7.8513    -2.6826    -3.4725 C.ar    
  16 C16            7.8453    -3.6824    -4.4276 C.ar    
  17 C17            7.4560    -4.9666    -4.0862 C.ar    
  18 C18            7.0685    -5.2484    -2.7682 C.ar    
  19 C19            7.0840    -4.2307    -1.8116 C.ar    
  20 C20            6.6525    -6.6108    -2.3937 C.2     
  21 O21            7.4490    -5.9491    -5.0239 O.3     
  22 C22            7.8557    -5.5877    -6.3453 C.3     
  23 C23            6.2822    -6.8764    -1.1304 C.2     
  24 C24            5.8660    -8.2395    -0.7556 C.ar    
  25 C25            5.4800    -8.5196     0.5580 C.ar    
  26 C26            5.0912    -9.7975     0.9012 C.ar    
  27 C27            5.0827   -10.8012    -0.0514 C.ar    
  28 C28            5.4640   -10.5314    -1.3540 C.ar    
  29 C29            5.8497    -9.2570    -1.7134 C.ar    
  30 H30           -0.9562     1.9169     0.0170 H       
  31 H31           -0.9185    -0.5688     0.0081 H       
  32 H32            1.2778    -1.7264    -0.0191 H       
  33 H33            1.1676     3.1567     0.0082 H       
  34 H34            4.6750     1.0532    -0.9543 H       
  35 H35            4.6259     1.1174     0.8242 H       
  36 H36            6.8767     0.4503    -0.0099 H       
  37 H37            6.1212    -0.8451     0.9497 H       
  38 H38            5.1749    -2.8250    -1.9827 H       
  39 H39            5.1258    -2.7608    -0.2041 H       
  40 H40            2.9241    -2.1579    -1.1485 H       
  41 H41            3.6796    -0.8626    -2.1082 H       
  42 H42            8.2563    -1.1331    -1.3878 H       
  43 H43            7.6824    -2.2832    -0.1565 H       
  44 H44            8.1555    -1.6826    -3.7442 H       
  45 H45            8.1444    -3.4613    -5.4415 H       
  46 H46            6.7874    -4.4399    -0.7945 H       
  47 H47            6.6452    -7.3962    -3.1349 H       
  48 H48            7.1941    -4.8113    -6.7295 H       
  49 H49            8.8792    -5.2135    -6.3208 H       
  50 H50            7.8041    -6.4625    -6.9934 H       
  51 H51            6.2895    -6.0910    -0.3891 H       
  52 H52            5.4865    -7.7374     1.3026 H       
  53 H53            4.7930   -10.0156     1.9161 H       
  54 H54            4.7773   -11.8001     0.2231 H       
  55 H55            5.4552   -11.3198    -2.0921 H       
  56 H56            6.1471    -9.0479    -2.7304 H       
@<TRIPOS>BOND
   1    1    2 ar
   2    1    6 ar
   3    1   30 1
   4    2    3 ar
   5    2   31 1
   6    3    4 ar
   7    3   32 1
   8    4    5 ar
   9    4    7 1
  10    5    6 ar
  11    6   33 1
  12    7    8 1
  13    7   12 1
  14    8    9 1
  15    8   34 1
  16    8   35 1
  17    9   10 1
  18    9   36 1
  19    9   37 1
  20   10   11 1
  21   10   13 1
  22   11   12 1
  23   11   38 1
  24   11   39 1
  25   12   40 1
  26   12   41 1
  27   13   14 1
  28   13   42 1
  29   13   43 1
  30   14   15 ar
  31   14   19 ar
  32   15   16 ar
  33   15   44 1
  34   16   17 ar
  35   16   45 1
  36   17   18 ar
  37   17   21 1
  38   18   19 ar
  39   18   20 1
  40   19   46 1
  41   20   23 2
  42   20   47 1
  43   21   22 1
  44   22   48 1
  45   22   49 1
  46   22   50 1
  47   23   24 1
  48   23   51 1
  49   24   25 ar
  50   24   29 ar
  51   25   26 ar
  52   25   52 1
  53   26   27 ar
  54   26   53 1
  55   27   28 ar
  56   27   54 1
  57   28   29 ar
  58   28   55 1
  59   29   56 1

#	End of record

