#	Name: ASD03082191
#	Creating user name:	WinNT
#	Creation time:	15. 06. 2019 20:27

#	Modifying user name:	WinNT
#	Modification time:	15. 06. 2019 20:27

#	Program:	/corina/corina34_cracker 3.40 0067  02.08.2006

@<TRIPOS>MOLECULE
ASD03082191
  49   52    0    0    0
SMALL
NO_CHARGES


@<TRIPOS>ATOM
   1 C1             1.1950    -0.3059     0.7523 C.ar    
   2 C2             0.0347     0.2287     0.2070 C.ar    
   3 C3             0.0172     1.5503    -0.2216 C.ar    
   4 C4             1.1523     2.3276    -0.1042 C.ar    
   5 C5             2.3061     1.7919     0.4389 C.ar    
   6 C6             2.3269     0.4773     0.8668 C.ar    
   7 N7            -1.1121    -0.5610     0.0892 N.pl3   
   8 H8            -1.0302    -1.5178    -0.0475 H       
   9 C9            -2.3760     0.0273     0.1684 C.2     
  10 N10           -3.5368    -0.6023    -0.0238 N.2     
  11 N11           -2.6136     1.2875     0.4493 N.2     
  12 N12           -4.0074     1.4568     0.4261 N.pl3   
  13 C13           -4.5335     0.2477     0.1265 C.2     
  14 C14           -4.7453     2.6965     0.6807 C.3     
  15 C15           -5.9722    -0.0656    -0.0094 C.ar    
  16 C16           -6.8994     0.9519    -0.2720 C.ar    
  17 C17           -8.2314     0.6109    -0.3910 C.ar    
  18 C18           -8.6079    -0.7221    -0.2475 C.ar    
  19 N19           -7.7062    -1.6607     0.0010 N.ar    
  20 C20           -6.4248    -1.3782     0.1161 C.ar    
  21 O21           -4.9097     3.4131    -0.5447 O.3     
  22 N22           -9.9458    -1.0722    -0.3660 N.3     
  23 C23          -10.1301    -2.5191    -0.1820 C.3     
  24 C24          -11.6223    -2.8521    -0.2609 C.3     
  25 O25          -12.1421    -2.3950    -1.5123 O.3     
  26 C26          -11.9801    -0.9899    -1.7243 C.3     
  27 C27          -10.4915    -0.6380    -1.6602 C.3     
  28 C28            1.1342     3.7611    -0.5687 C.3     
  29 F29            0.7413     4.5889     0.4883 F       
  30 F30            2.4141     4.1284    -0.9978 F       
  31 F31            0.2305     3.8966    -1.6280 F       
  32 H32            1.2107    -1.3315     1.0905 H       
  33 H33           -0.8832     1.9689    -0.6464 H       
  34 H34            3.1928     2.4019     0.5289 H       
  35 H35            3.2295     0.0621     1.2904 H       
  36 H36           -5.7244     2.4577     1.0961 H       
  37 H37           -4.1900     3.3109     1.3893 H       
  38 H38           -6.5794     1.9779    -0.3782 H       
  39 H39           -8.9734     1.3693    -0.5928 H       
  40 H40           -5.7189    -2.1701     0.3187 H       
  41 H41           -5.3911     4.2466    -0.4513 H       
  42 H42           -9.5953    -3.0566    -0.9650 H       
  43 H43           -9.7424    -2.8143     0.7930 H       
  44 H44          -11.7592    -3.9306    -0.1821 H       
  45 H45          -12.1494    -2.3572     0.5548 H       
  46 H46          -12.3756    -0.7216    -2.7039 H       
  47 H47          -12.5175    -0.4408    -0.9512 H       
  48 H48          -10.3675     0.4399    -1.7643 H       
  49 H49           -9.9624    -1.1454    -2.4669 H       
@<TRIPOS>BOND
   1    1    2 ar
   2    1    6 ar
   3    1   32 1
   4    2    3 ar
   5    2    7 1
   6    3    4 ar
   7    3   33 1
   8    4    5 ar
   9    4   28 1
  10    5    6 ar
  11    5   34 1
  12    6   35 1
  13    7    8 1
  14    7    9 1
  15    9   10 1
  16    9   11 2
  17   10   13 2
  18   11   12 1
  19   12   13 1
  20   12   14 1
  21   13   15 1
  22   14   21 1
  23   14   36 1
  24   14   37 1
  25   15   16 ar
  26   15   20 ar
  27   16   17 ar
  28   16   38 1
  29   17   18 ar
  30   17   39 1
  31   18   19 ar
  32   18   22 1
  33   19   20 ar
  34   20   40 1
  35   21   41 1
  36   22   23 1
  37   22   27 1
  38   23   24 1
  39   23   42 1
  40   23   43 1
  41   24   25 1
  42   24   44 1
  43   24   45 1
  44   25   26 1
  45   26   27 1
  46   26   46 1
  47   26   47 1
  48   27   48 1
  49   27   49 1
  50   28   29 1
  51   28   30 1
  52   28   31 1

#	End of record

