#	Name: ASD05380116
#	Creating user name:	WinNT
#	Creation time:	15. 06. 2019 20:59

#	Modifying user name:	WinNT
#	Modification time:	15. 06. 2019 20:59

#	Program:	/corina/corina34_cracker 3.40 0067  02.08.2006

@<TRIPOS>MOLECULE
ASD05380116
  54   58    0    0    0
SMALL
NO_CHARGES


@<TRIPOS>ATOM
   1 C1            -0.2684     1.7421    -0.3089 C.ar    
   2 C2            -0.0030     0.3787    -0.5682 C.ar    
   3 C3             0.6341     2.7197    -0.7222 C.ar    
   4 C4             1.7837     2.3462    -1.3839 C.ar    
   5 C5             2.0473     1.0074    -1.6409 C.ar    
   6 C6             1.1685     0.0257    -1.2403 C.ar    
   7 N7            -0.8959    -0.5556    -0.1560 N.2     
   8 C8            -1.9852    -0.2270     0.4695 C.2     
   9 N9            -2.3211     1.0588     0.7610 N.am    
  10 C10           -1.5076     2.0805     0.4061 C.2     
  11 C11           -3.5171     1.3271     1.4394 C.ar    
  12 C12           -4.6867     1.5532     0.7227 C.ar    
  13 C13           -5.9002     1.8611     2.7645 C.ar    
  14 C14           -2.9256    -1.3256     0.8935 C.3     
  15 N15           -2.9272    -2.3848    -0.1186 N.pl3   
  16 C16           -4.0263    -3.2155    -0.2490 C.ar    
  17 N17           -5.0886    -3.0661     0.5357 N.ar    
  18 O18           -1.7952     3.2356     0.6608 O.2     
  19 C19           -4.0476    -4.2328    -1.2180 C.ar    
  20 C20           -5.1915    -5.0445    -1.3028 C.ar    
  21 N21           -6.2037    -4.8231    -0.4706 N.ar    
  22 C22           -6.1417    -3.8541     0.4184 C.ar    
  23 N23           -3.1806    -4.6646    -2.1652 N.2     
  24 C24           -3.7067    -5.6651    -2.8101 C.2     
  25 N25           -4.9472    -5.9378    -2.3150 N.pl3   
  26 C26           -5.8704     1.8186     1.3860 C.ar    
  27 C27           -4.7308     1.6296     3.4959 C.ar    
  28 C28           -3.5349     1.3615     2.8240 C.ar    
  29 C29            0.3549     4.1750    -0.4481 C.3     
  30 C30           -2.4652    -1.9018     2.2340 C.3     
  31 C31           -4.7582     1.6741     4.9668 C.2     
  32 C32           -6.0481     1.9695     5.6879 C.3     
  33 O33           -3.7428     1.4730     5.5984 O.2     
  34 H34            2.4855     3.1013    -1.7058 H       
  35 H35            2.9528     0.7325    -2.1613 H       
  36 H36            1.3841    -1.0123    -1.4462 H       
  37 H37           -4.6705     1.5218    -0.3567 H       
  38 H38           -6.8269     2.0687     3.2788 H       
  39 H39           -3.9325    -0.9216     0.9983 H       
  40 H40           -2.1579    -2.5038    -0.6973 H       
  41 H41           -6.9834    -3.6981     1.0768 H       
  42 H42           -3.2306    -6.2005    -3.6183 H       
  43 H43           -5.5468    -6.6359    -2.6217 H       
  44 H44           -6.7751     1.9936     0.8227 H       
  45 H45           -2.6281     1.1813     3.3824 H       
  46 H46            0.6750     4.4220     0.5641 H       
  47 H47            0.9015     4.7906    -1.1625 H       
  48 H48           -0.7138     4.3650    -0.5478 H       
  49 H49           -1.4462    -2.2766     2.1376 H       
  50 H50           -2.4949    -1.1214     2.9944 H       
  51 H51           -3.1265    -2.7180     2.5250 H       
  52 H52           -6.7884     1.2110     5.4335 H       
  53 H53           -5.8733     1.9603     6.7637 H       
  54 H54           -6.4155     2.9509     5.3879 H       
@<TRIPOS>BOND
   1    1    2 ar
   2    1    3 ar
   3    1   10 1
   4    2    7 1
   5    2    6 ar
   6    3    4 ar
   7    3   29 1
   8    4    5 ar
   9    4   34 1
  10    5    6 ar
  11    5   35 1
  12    6   36 1
  13    7    8 2
  14    8    9 1
  15    8   14 1
  16    9   10 am
  17    9   11 1
  18   10   18 2
  19   11   12 ar
  20   11   28 ar
  21   12   26 ar
  22   12   37 1
  23   13   26 ar
  24   13   27 ar
  25   13   38 1
  26   14   15 1
  27   14   30 1
  28   14   39 1
  29   15   16 1
  30   15   40 1
  31   16   17 ar
  32   16   19 ar
  33   17   22 ar
  34   19   20 ar
  35   19   23 1
  36   20   21 ar
  37   20   25 1
  38   21   22 ar
  39   22   41 1
  40   23   24 2
  41   24   25 1
  42   24   42 1
  43   25   43 1
  44   26   44 1
  45   27   31 1
  46   27   28 ar
  47   28   45 1
  48   29   46 1
  49   29   47 1
  50   29   48 1
  51   30   49 1
  52   30   50 1
  53   30   51 1
  54   31   32 1
  55   31   33 2
  56   32   52 1
  57   32   53 1
  58   32   54 1

#	End of record

