#	Name: ASD01816054
#	Creating user name:	WinNT
#	Creation time:	15. 06. 2019 19:34

#	Modifying user name:	WinNT
#	Modification time:	15. 06. 2019 19:34

#	Program:	/corina/corina34_cracker 3.40 0067  02.08.2006

@<TRIPOS>MOLECULE
ASD01816054
  53   58    0    0    0
SMALL
NO_CHARGES


@<TRIPOS>ATOM
   1 C1            -0.0167     1.3813     0.0096 C.ar    
   2 C2             0.0021    -0.0041     0.0020 C.ar    
   3 C3             1.1984    -0.6909    -0.0131 C.ar    
   4 C4             2.4015     0.0059    -0.0209 C.ar    
   5 C5             2.3790     1.4106    -0.0132 C.ar    
   6 C6             1.1663     2.0916     0.0022 C.ar    
   7 N7             3.6053    -0.6772    -0.0356 N.pl3   
   8 C8             4.7970    -0.0586    -0.0433 C.2     
   9 C9             4.9000     1.3103    -0.0373 C.2     
  10 C10            3.6670     2.1301    -0.0217 C.2     
  11 C11            5.9971     2.2729    -0.0432 C.2     
  12 N12            5.4245     3.4960    -0.0323 N.am    
  13 N13            4.0323     3.3799    -0.0195 N.2     
  14 C14            6.1264     4.7082    -0.0333 C.ar    
  15 O15            7.1914     2.0229    -0.0548 O.2     
  16 C16            3.5779    -2.1419    -0.0427 C.3     
  17 C17            6.5546     5.2634    -1.2317 C.ar    
  18 C18            7.2466     6.4588    -1.2297 C.ar    
  19 C19            7.5142     7.1036    -0.0359 C.ar    
  20 C20            7.0900     6.5550     1.1603 C.ar    
  21 C21            6.3912     5.3614     1.1656 C.ar    
  22 F22            5.9763     4.8253     2.3342 F       
  23 C23            3.5552    -2.6371    -1.4659 C.ar    
  24 C24            4.7303    -2.6890    -2.1975 C.ar    
  25 C25            4.7138    -3.1426    -3.5035 C.ar    
  26 C26            3.5128    -3.5472    -4.0818 C.ar    
  27 C27            2.3341    -3.4924    -3.3399 C.ar    
  28 C28            2.3620    -3.0434    -2.0352 C.ar    
  29 C29            3.4883    -4.0345    -5.4829 C.ar    
  30 C30            2.8624    -5.2394    -5.8130 C.ar    
  31 F31            5.8936    -2.2955    -1.6345 F       
  32 C32            4.0863    -3.2975    -6.5105 C.ar    
  33 C33            4.0402    -3.7882    -7.8005 C.ar    
  34 N34            3.4427    -4.9337    -8.0678 N.ar    
  35 C35            2.8628    -5.6559    -7.1287 C.ar    
  36 Cl36           4.8740    -1.7886    -6.1694 Cl      
  37 H37           -0.9602     1.9068     0.0170 H       
  38 H38           -0.9289    -0.5516     0.0083 H       
  39 H39            1.2004    -1.7709    -0.0186 H       
  40 H40            1.1506     3.1715     0.0077 H       
  41 H41            5.6983    -0.6536    -0.0540 H       
  42 H42            4.4657    -2.5244     0.4609 H       
  43 H43            2.6861    -2.4912     0.4778 H       
  44 H44            6.3471     4.7607    -2.1648 H       
  45 H45            7.5796     6.8905    -2.1620 H       
  46 H46            8.0561     8.0378    -0.0379 H       
  47 H47            7.3009     7.0609     2.0909 H       
  48 H48            5.6298    -3.1828    -4.0741 H       
  49 H49            1.4007    -3.8051    -3.7841 H       
  50 H50            1.4487    -3.0009    -1.4604 H       
  51 H51            2.3854    -5.8361    -5.0496 H       
  52 H52            4.4989    -3.2268    -8.6010 H       
  53 H53            2.3851    -6.5879    -7.3923 H       
@<TRIPOS>BOND
   1    1    2 ar
   2    1    6 ar
   3    1   37 1
   4    2    3 ar
   5    2   38 1
   6    3    4 ar
   7    3   39 1
   8    4    5 ar
   9    4    7 1
  10    5    6 ar
  11    5   10 1
  12    6   40 1
  13    7    8 1
  14    7   16 1
  15    8    9 2
  16    8   41 1
  17    9   10 1
  18    9   11 1
  19   10   13 2
  20   11   12 am
  21   11   15 2
  22   12   13 1
  23   12   14 1
  24   14   17 ar
  25   14   21 ar
  26   16   23 1
  27   16   42 1
  28   16   43 1
  29   17   18 ar
  30   17   44 1
  31   18   19 ar
  32   18   45 1
  33   19   20 ar
  34   19   46 1
  35   20   21 ar
  36   20   47 1
  37   21   22 1
  38   23   24 ar
  39   23   28 ar
  40   24   25 ar
  41   24   31 1
  42   25   26 ar
  43   25   48 1
  44   26   27 ar
  45   26   29 1
  46   27   28 ar
  47   27   49 1
  48   28   50 1
  49   29   30 ar
  50   29   32 ar
  51   30   35 ar
  52   30   51 1
  53   32   33 ar
  54   32   36 1
  55   33   34 ar
  56   33   52 1
  57   34   35 ar
  58   35   53 1

#	End of record

