#	Name: ASD01230252
#	Creating user name:	WinNT
#	Creation time:	15. 06. 2019 19:12

#	Modifying user name:	WinNT
#	Modification time:	15. 06. 2019 19:12

#	Program:	/corina/corina34_cracker 3.40 0067  02.08.2006

@<TRIPOS>MOLECULE
ASD01230252
  41   44    0    0    0
SMALL
NO_CHARGES


@<TRIPOS>ATOM
   1 S1             1.0824     0.8204     0.0110 S.o2    
   2 N2             0.6917    -0.7743    -0.1939 N.am    
   3 C3             1.4202    -1.5850    -0.9225 C.2     
   4 N4             2.5606    -1.2419    -1.5912 N.pl3   
   5 C5             3.1023     0.1186    -1.6410 C.3     
   6 C6             2.8749     0.8377    -0.3082 C.3     
   7 C7             0.9431    -2.9817    -1.0084 C.2     
   8 C8             1.6798    -3.8995    -1.7250 C.2     
   9 C9             2.8600    -3.4806    -2.3545 C.2     
  10 C10            3.2653    -2.2017    -2.2746 C.2     
  11 C11           -0.3099    -3.3891    -0.3327 C.ar    
  12 C12           -0.2716    -4.3073     0.7172 C.ar    
  13 C13           -1.4404    -4.6840     1.3443 C.ar    
  14 C14           -2.6544    -4.1510     0.9321 C.ar    
  15 C15           -2.6964    -3.2371    -0.1122 C.ar    
  16 C16           -1.5311    -2.8513    -0.7404 C.ar    
  17 O17           -3.8044    -4.5252     1.5520 O.3     
  18 C18           -3.6786    -5.3709     2.6970 C.3     
  19 C19           -4.8817    -5.2977     3.6520 C.3     
  20 C20           -4.7425    -6.8201     3.8181 C.3     
  21 C21           -4.0789    -6.8317     2.4309 C.3     
  22 O22            0.3795     1.4964    -1.0225 O.2     
  23 O23            0.8115     1.0818     1.3813 O.2     
  24 H24            4.1717     0.0724    -1.8466 H       
  25 H25            2.6073     0.6736    -2.4379 H       
  26 H26            3.2303     1.8660    -0.3755 H       
  27 H27            3.3995     0.3140     0.4909 H       
  28 H28            1.3530    -4.9261    -1.8001 H       
  29 H29            3.4507    -4.1939    -2.9101 H       
  30 H30            4.1830    -1.9174    -2.7681 H       
  31 H31            0.6722    -4.7229     1.0379 H       
  32 H32           -1.4116    -5.3947     2.1570 H       
  33 H33           -3.6425    -2.8246    -0.4302 H       
  34 H34           -1.5641    -2.1372    -1.5499 H       
  35 H35           -2.7164    -5.2648     3.1980 H       
  36 H36           -4.6805    -4.7385     4.5658 H       
  37 H37           -5.8083    -4.9946     3.1645 H       
  38 H38           -4.0710    -7.1116     4.6257 H       
  39 H39           -5.6972    -7.3451     3.8498 H       
  40 H40           -4.7860    -6.9480     1.6096 H       
  41 H41           -3.2294    -7.5109     2.3588 H       
@<TRIPOS>BOND
   1    1    2 am
   2    1    6 1
   3    1   22 2
   4    1   23 2
   5    2    3 2
   6    3    4 1
   7    3    7 1
   8    4    5 1
   9    4   10 1
  10    5    6 1
  11    5   24 1
  12    5   25 1
  13    6   26 1
  14    6   27 1
  15    7    8 2
  16    7   11 1
  17    8    9 1
  18    8   28 1
  19    9   10 2
  20    9   29 1
  21   10   30 1
  22   11   12 ar
  23   11   16 ar
  24   12   13 ar
  25   12   31 1
  26   13   14 ar
  27   13   32 1
  28   14   15 ar
  29   14   17 1
  30   15   16 ar
  31   15   33 1
  32   16   34 1
  33   17   18 1
  34   18   19 1
  35   18   21 1
  36   18   35 1
  37   19   20 1
  38   19   36 1
  39   19   37 1
  40   20   21 1
  41   20   38 1
  42   20   39 1
  43   21   40 1
  44   21   41 1

#	End of record

