#	Name: ASD02320021
#	Creating user name:	WinNT
#	Creation time:	15. 06. 2019 20:20

#	Modifying user name:	WinNT
#	Modification time:	15. 06. 2019 20:20

#	Program:	/corina/corina34_cracker 3.40 0067  02.08.2006

@<TRIPOS>MOLECULE
ASD02320021
  37   39    0    0    0
SMALL
NO_CHARGES


@<TRIPOS>ATOM
   1 C1            -0.0168     1.3846     0.0097 C.ar    
   2 C2             0.0021    -0.0041     0.0020 C.ar    
   3 C3             1.1935    -0.6932    -0.0126 C.ar    
   4 C4             2.4009     0.0112    -0.0204 C.ar    
   5 C5             2.3774     1.4250    -0.0131 C.ar    
   6 C6             1.1598     2.1019     0.0023 C.ar    
   7 N7             3.5880    -0.6267    -0.0344 N.2     
   8 C8             4.7216     0.0301    -0.0413 C.2     
   9 N9             4.7919     1.3971    -0.0346 N.am    
  10 C10            3.6614     2.1411    -0.0211 C.2     
  11 O11            3.7060     3.3575    -0.0153 O.2     
  12 C12            5.9795    -0.7386    -0.0565 C.ar    
  13 C13            5.9477    -2.1409    -0.0633 C.ar    
  14 C14            7.2081    -0.0730    -0.0700 C.ar    
  15 C15            8.3807    -0.7943    -0.0841 C.ar    
  16 C16            8.3476    -2.1846    -0.0855 C.ar    
  17 C17            7.1330    -2.8551    -0.0775 C.ar    
  18 O18            4.7586    -2.7952    -0.0554 O.3     
  19 S19            4.2032    -3.0865    -1.4422 S.o2    
  20 O20            2.8854    -3.5824    -1.2506 O.2     
  21 O21            4.4968    -1.9475    -2.2395 O.2     
  22 O22            5.0154    -4.2366    -2.0203 O.3     
  23 Na23           4.5728    -6.0128    -1.2395 Du      
  24 O24            9.5084    -2.8885    -0.0999 O.3     
  25 S25           10.0539    -3.2112     1.2838 S.o2    
  26 O26           11.3492    -3.7611     1.0862 O.2     
  27 O27            9.8103    -2.0656     2.0884 O.2     
  28 O28            9.1952    -4.3295     1.8571 O.3     
  29 Na29           9.5609    -6.1180     1.0649 Du      
  30 H30           -0.9620     1.9069     0.0170 H       
  31 H31           -0.9297    -0.5501     0.0080 H       
  32 H32            1.1954    -1.7732    -0.0178 H       
  33 H33            1.1381     3.1817     0.0083 H       
  34 H34            5.6572     1.8354    -0.0395 H       
  35 H35            7.2378     1.0066    -0.0697 H       
  36 H36            9.3296    -0.2786    -0.0946 H       
  37 H37            7.1125    -3.9349    -0.0782 H       
@<TRIPOS>BOND
   1    1    2 ar
   2    1    6 ar
   3    1   30 1
   4    2    3 ar
   5    2   31 1
   6    3    4 ar
   7    3   32 1
   8    4    5 ar
   9    4    7 1
  10    5    6 ar
  11    5   10 1
  12    6   33 1
  13    7    8 2
  14    8    9 1
  15    8   12 1
  16    9   10 am
  17    9   34 1
  18   10   11 2
  19   12   13 ar
  20   12   14 ar
  21   13   18 1
  22   13   17 ar
  23   14   15 ar
  24   14   35 1
  25   15   16 ar
  26   15   36 1
  27   16   17 ar
  28   16   24 1
  29   17   37 1
  30   18   19 1
  31   19   20 2
  32   19   21 2
  33   19   22 1
  34   22   23 1
  35   24   25 1
  36   25   26 2
  37   25   27 2
  38   25   28 1
  39   28   29 1

#	End of record

