#	Name: ASD01812123
#	Creating user name:	WinNT
#	Creation time:	15. 06. 2019 19:28

#	Modifying user name:	WinNT
#	Modification time:	15. 06. 2019 19:28

#	Program:	/corina/corina34_cracker 3.40 0067  02.08.2006

@<TRIPOS>MOLECULE
ASD01812123
  53   58    0    0    0
SMALL
NO_CHARGES


@<TRIPOS>ATOM
   1 C1            -0.0168     1.3869     0.0097 C.ar    
   2 C2             0.0021    -0.0041     0.0020 C.ar    
   3 C3             1.1801    -0.6897    -0.0129 C.ar    
   4 C4             2.3948     0.0129    -0.0207 C.ar    
   5 C5             2.3717     1.4290    -0.0129 C.ar    
   6 C6             1.1455     2.1015     0.0024 C.ar    
   7 C7             3.6293    -0.6694    -0.0365 C.ar    
   8 C8             4.8031     0.0063    -0.0446 C.ar    
   9 C9             4.8359     1.4095    -0.0374 C.ar    
  10 C10            3.6406     2.1511    -0.0211 C.ar    
  11 C11            6.1026     2.1526    -0.0470 C.2     
  12 N12            6.0328     3.5041    -0.0399 N.am    
  13 C13            4.8302     4.1313    -0.0241 C.2     
  14 N14            3.6961     3.4935    -0.0158 N.2     
  15 O15            7.1745     1.5748    -0.0604 O.2     
  16 C16            3.6424    -2.1763    -0.0442 C.3     
  17 C17            3.5087    -2.6726    -1.4608 C.ar    
  18 C18            2.2676    -3.0157    -1.9796 C.ar    
  19 C19            2.1824    -3.4667    -3.2816 C.ar    
  20 N20            3.2597    -3.5757    -4.0357 N.ar    
  21 C21            4.4621    -3.2605    -3.5829 C.ar    
  22 C22            4.6212    -2.7921    -2.2790 C.ar    
  23 C23            7.2655     4.2957    -0.0490 C.3     
  24 C24            7.3191     5.1738     1.2050 C.3     
  25 C25            8.5722     6.0528     1.1462 C.3     
  26 C26            8.5459     6.8800    -0.1417 C.3     
  27 O27            8.4647     6.0036    -1.2676 O.3     
  28 C28            7.2896     5.1908    -1.2907 C.3     
  29 O29            7.3710     4.3444     2.3675 O.3     
  30 O30            5.6875    -3.2979    -4.1805 O.3     
  31 C31            6.5394    -2.4688    -3.3683 C.3     
  32 O32            5.9432    -2.5401    -2.0607 O.3     
  33 H33           -0.9630     1.9076     0.0169 H       
  34 H34           -0.9305    -0.5488     0.0083 H       
  35 H35            1.1786    -1.7697    -0.0183 H       
  36 H36            1.1188     3.1811     0.0081 H       
  37 H37            5.7317    -0.5451    -0.0563 H       
  38 H38            4.8132     5.2111    -0.0182 H       
  39 H39            4.5813    -2.5336     0.3789 H       
  40 H40            2.8098    -2.5499     0.5518 H       
  41 H41            1.3790    -2.9311    -1.3716 H       
  42 H42            1.2190    -3.7349    -3.6893 H       
  43 H43            8.1276     3.6288    -0.0638 H       
  44 H44            6.4320     5.8058     1.2457 H       
  45 H45            8.5896     6.7204     2.0076 H       
  46 H46            9.4607     5.4214     1.1555 H       
  47 H47            7.6788     7.5404    -0.1319 H       
  48 H48            9.4561     7.4758    -0.2098 H       
  49 H49            7.2948     4.5697    -2.1865 H       
  50 H50            6.4061     5.8291    -1.2959 H       
  51 H51            7.4068     4.8355     3.1997 H       
  52 H52            7.5548    -2.8646    -3.3505 H       
  53 H53            6.5341    -1.4415    -3.7327 H       
@<TRIPOS>BOND
   1    1    2 ar
   2    1    6 ar
   3    1   33 1
   4    2    3 ar
   5    2   34 1
   6    3    4 ar
   7    3   35 1
   8    4    5 ar
   9    4    7 ar
  10    5    6 ar
  11    5   10 ar
  12    6   36 1
  13    7    8 ar
  14    7   16 1
  15    8    9 ar
  16    8   37 1
  17    9   10 ar
  18    9   11 1
  19   10   14 1
  20   11   12 am
  21   11   15 2
  22   12   13 1
  23   12   23 1
  24   13   14 2
  25   13   38 1
  26   16   17 1
  27   16   39 1
  28   16   40 1
  29   17   18 ar
  30   17   22 ar
  31   18   19 ar
  32   18   41 1
  33   19   20 ar
  34   19   42 1
  35   20   21 ar
  36   21   22 ar
  37   21   30 1
  38   22   32 1
  39   23   24 1
  40   23   28 1
  41   23   43 1
  42   24   25 1
  43   24   29 1
  44   24   44 1
  45   25   26 1
  46   25   45 1
  47   25   46 1
  48   26   27 1
  49   26   47 1
  50   26   48 1
  51   27   28 1
  52   28   49 1
  53   28   50 1
  54   29   51 1
  55   30   31 1
  56   31   32 1
  57   31   52 1
  58   31   53 1

#	End of record

