#	Name: ASD00960211
#	Creating user name:	WinNT
#	Creation time:	15. 06. 2019 18:53

#	Modifying user name:	WinNT
#	Modification time:	15. 06. 2019 18:53

#	Program:	/corina/corina34_cracker 3.40 0067  02.08.2006

@<TRIPOS>MOLECULE
ASD00960211
  37   39    0    0    0
SMALL
NO_CHARGES


@<TRIPOS>ATOM
   1 C1            -0.0170     1.4010     0.0097 C.2     
   2 C2             0.0021    -0.0041     0.0020 C.2     
   3 N3             1.2765     1.8417    -0.0002 N.pl3   
   4 C4             2.1136     0.7543    -0.0141 C.2     
   5 C5             1.3422    -0.3976    -0.0129 C.2     
   6 N6             1.8450     3.1236     0.0008 N.2     
   7 C7             3.1443     3.2640    -0.0112 C.2     
   8 N8             3.9681     2.2205    -0.0247 N.2     
   9 C9             3.5132     0.9800    -0.0262 C.2     
  10 N10            4.3913    -0.0849    -0.0399 N.pl3   
  11 C11           -1.1384    -0.8700     0.0087 C.1     
  12 C12           -2.0734    -1.5799     0.0141 C.1     
  13 C13           -3.2458    -2.4701     0.0210 C.3     
  14 C14           -1.1729     2.2167     0.0199 C.2     
  15 O15           -2.2779     1.7062     0.0230 O.2     
  16 O16           -1.0504     3.5610     0.0261 O.3     
  17 C17           -2.2595     4.3226     0.0362 C.3     
  18 C18           -1.9273     5.7925     0.0419 C.ar    
  19 C19           -1.7811     6.4727    -1.1526 C.ar    
  20 C20           -1.4763     7.8211    -1.1473 C.ar    
  21 C21           -1.3182     8.4892     0.0525 C.ar    
  22 C22           -1.4653     7.8092     1.2470 C.ar    
  23 C23           -1.7743     6.4618     1.2417 C.ar    
  24 H24            1.7100    -1.4130    -0.0215 H       
  25 H25            3.5623     4.2598    -0.0105 H       
  26 H26            5.3479     0.0754    -0.0485 H       
  27 H27            4.0518    -0.9935    -0.0410 H       
  28 H28           -2.9138    -3.5082     0.0121 H       
  29 H29           -3.8370    -2.2853     0.9178 H       
  30 H30           -3.8547    -2.2758    -0.8620 H       
  31 H31           -2.8454     4.0860    -0.8520 H       
  32 H32           -2.8362     4.0769     0.9279 H       
  33 H33           -1.9047     5.9507    -2.0899 H       
  34 H34           -1.3614     8.3524    -2.0805 H       
  35 H35           -1.0794     9.5425     0.0566 H       
  36 H36           -1.3414     8.3311     2.1843 H       
  37 H37           -1.8929     5.9314     2.1749 H       
@<TRIPOS>BOND
   1    1    2 2
   2    1    3 1
   3    1   14 1
   4    2   11 1
   5    2    5 1
   6    3    4 1
   7    3    6 1
   8    4    5 2
   9    4    9 1
  10    5   24 1
  11    6    7 2
  12    7    8 1
  13    7   25 1
  14    8    9 2
  15    9   10 1
  16   10   26 1
  17   10   27 1
  18   11   12 3
  19   12   13 1
  20   13   28 1
  21   13   29 1
  22   13   30 1
  23   14   15 2
  24   14   16 1
  25   16   17 1
  26   17   18 1
  27   17   31 1
  28   17   32 1
  29   18   19 ar
  30   18   23 ar
  31   19   20 ar
  32   19   33 1
  33   20   21 ar
  34   20   34 1
  35   21   22 ar
  36   21   35 1
  37   22   23 ar
  38   22   36 1
  39   23   37 1

#	End of record

