#	Name: ASD00060041
#	Creating user name:	WinNT
#	Creation time:	15. 06. 2019 18:29

#	Modifying user name:	WinNT
#	Modification time:	15. 06. 2019 18:29

#	Program:	/corina/corina34_cracker 3.40 0067  02.08.2006

@<TRIPOS>MOLECULE
ASD00060041
  45   47    0    0    0
SMALL
NO_CHARGES


@<TRIPOS>ATOM
   1 C1            -0.0167     1.3782     0.0096 C.ar    
   2 C2             0.0021    -0.0041     0.0020 C.ar    
   3 C3             1.2076    -0.6815    -0.0127 C.ar    
   4 C4             2.3963     0.0219    -0.0199 C.ar    
   5 C5             2.3802     1.4093    -0.0127 C.ar    
   6 C6             1.1697     2.0864     0.0021 C.ar    
   7 O7             3.5484     2.1036    -0.0193 O.3     
   8 C8             3.4557     3.5296    -0.0113 C.3     
   9 C9             4.8620     4.1322    -0.0204 C.3     
  10 S10            4.7445     5.9383    -0.0103 S.3     
  11 C11            6.4562     6.3563    -0.0229 C.2     
  12 N12            6.9538     7.6288    -0.0153 N.pl3   
  13 N13            7.4422     5.4931    -0.0353 N.2     
  14 C14            8.3355     7.5293    -0.0298 C.ar    
  15 C15            9.3660     8.4569    -0.0313 C.ar    
  16 C16            8.6285     6.1556    -0.0424 C.ar    
  17 C17            9.9614     5.7368    -0.0552 C.ar    
  18 C18           10.9720     6.6720    -0.0591 C.ar    
  19 C19           10.6770     8.0272    -0.0488 C.ar    
  20 C20            6.1719     8.8676     0.0040 C.3     
  21 C21            5.9178     9.2790     1.4313 C.2     
  22 O22            6.3458     8.6064     2.3392 O.2     
  23 O23            5.2159    10.3926     1.6940 O.3     
  24 C24            3.7096    -0.7170    -0.0349 C.3     
  25 C25            1.2243    -2.1884    -0.0205 C.3     
  26 H26           -0.9595     1.9050     0.0170 H       
  27 H27           -0.9263    -0.5558     0.0080 H       
  28 H28            1.1545     3.1663     0.0077 H       
  29 H29            2.9117     3.8632    -0.8950 H       
  30 H30            2.9270     3.8543     0.8849 H       
  31 H31            5.4060     3.7985     0.8633 H       
  32 H32            5.3906     3.8075    -0.9166 H       
  33 H33            9.1430     9.5136    -0.0191 H       
  34 H34           10.1982     4.6831    -0.0618 H       
  35 H35           12.0021     6.3478    -0.0691 H       
  36 H36           11.4788     8.7508    -0.0499 H       
  37 H37            6.7256     9.6547    -0.5079 H       
  38 H38            5.2204     8.7046    -0.5021 H       
  39 H39            5.0787    10.6157     2.6248 H       
  40 H40            4.0172    -0.8903    -1.0662 H       
  41 H41            4.4672    -0.1219     0.4750 H       
  42 H42            3.5945    -1.6732     0.4754 H       
  43 H43            1.2187    -2.5465    -1.0499 H       
  44 H44            2.1231    -2.5443     0.4832 H       
  45 H45            0.3433    -2.5642     0.4998 H       
@<TRIPOS>BOND
   1    1    2 ar
   2    1    6 ar
   3    1   26 1
   4    2    3 ar
   5    2   27 1
   6    3    4 ar
   7    3   25 1
   8    4    5 ar
   9    4   24 1
  10    5    6 ar
  11    5    7 1
  12    6   28 1
  13    7    8 1
  14    8    9 1
  15    8   29 1
  16    8   30 1
  17    9   10 1
  18    9   31 1
  19    9   32 1
  20   10   11 1
  21   11   13 2
  22   11   12 1
  23   12   14 1
  24   12   20 1
  25   13   16 1
  26   14   16 ar
  27   14   15 ar
  28   15   19 ar
  29   15   33 1
  30   16   17 ar
  31   17   18 ar
  32   17   34 1
  33   18   19 ar
  34   18   35 1
  35   19   36 1
  36   20   21 1
  37   20   37 1
  38   20   38 1
  39   21   22 2
  40   21   23 1
  41   23   39 1
  42   24   40 1
  43   24   41 1
  44   24   42 1
  45   25   43 1
  46   25   44 1
  47   25   45 1

#	End of record

