#	Name: ASD09610052
#	Creating user name:	WinNT
#	Creation time:	15. 06. 2019 21:22

#	Modifying user name:	WinNT
#	Modification time:	15. 06. 2019 21:22

#	Program:	/corina/corina34_cracker 3.40 0067  02.08.2006

@<TRIPOS>MOLECULE
ASD09610052
  42   43    0    0    0
SMALL
NO_CHARGES


@<TRIPOS>ATOM
   1 C1            -0.0161     1.3337     0.0094 C.2     
   2 N2             0.0021    -0.0041     0.0020 N.2     
   3 C3             1.1370    -0.6712    -0.0124 C.2     
   4 C4             2.3535     0.0065    -0.0204 C.2     
   5 C5             2.3510     1.3881    -0.0129 C.2     
   6 N6             1.1527     2.0417     0.0020 N.pl3   
   7 N7             0.7957     3.3960     0.0127 N.2     
   8 C8            -0.5139     3.4479     0.0255 C.2     
   9 N9            -1.0089     2.2164     0.0182 N.2     
  10 N10            3.5346     2.0921    -0.0200 N.pl3   
  11 C11            3.6534    -0.7558    -0.0364 C.3     
  12 C12            4.0431    -1.1295     1.3951 C.3     
  13 C13            5.3628    -1.9034     1.3789 C.3     
  14 C14            5.7526    -2.2771     2.8104 C.3     
  15 C15            7.0723    -3.0510     2.7942 C.3     
  16 C16            7.4621    -3.4247     4.2257 C.3     
  17 C17            8.7818    -4.1986     4.2095 C.3     
  18 C18            9.1716    -4.5723     5.6410 C.3     
  19 C19            1.1195    -2.1781    -0.0198 C.3     
  20 H20           -1.1007     4.3546     0.0365 H       
  21 H21            4.3808     1.6181    -0.0303 H       
  22 H22            3.5219     3.0620    -0.0147 H       
  23 H23            3.5354    -1.6628    -0.6294 H       
  24 H24            4.4338    -0.1340    -0.4749 H       
  25 H25            4.1611    -0.2225     1.9881 H       
  26 H26            3.2626    -1.7513     1.8337 H       
  27 H27            5.2449    -2.8104     0.7859 H       
  28 H28            6.1433    -1.2816     0.9404 H       
  29 H29            5.8706    -1.3701     3.4034 H       
  30 H30            4.9721    -2.8989     3.2489 H       
  31 H31            6.9544    -3.9580     2.2012 H       
  32 H32            7.8528    -2.4292     2.3557 H       
  33 H33            7.5801    -2.5177     4.8187 H       
  34 H34            6.6816    -4.0465     4.6642 H       
  35 H35            8.6639    -5.1056     3.6165 H       
  36 H36            9.5623    -3.5768     3.7710 H       
  37 H37            9.2896    -3.6653     6.2340 H       
  38 H38            8.3911    -5.1941     6.0795 H       
  39 H39           10.1118    -5.1237     5.6294 H       
  40 H40            0.0877    -2.5295    -0.0116 H       
  41 H41            1.6203    -2.5428    -0.9166 H       
  42 H42            1.6377    -2.5518     0.8633 H       
@<TRIPOS>BOND
   1    1    2 1
   2    1    6 1
   3    1    9 2
   4    2    3 2
   5    3    4 1
   6    3   19 1
   7    4    5 2
   8    4   11 1
   9    5    6 1
  10    5   10 1
  11    6    7 1
  12    7    8 2
  13    8    9 1
  14    8   20 1
  15   10   21 1
  16   10   22 1
  17   11   12 1
  18   11   23 1
  19   11   24 1
  20   12   13 1
  21   12   25 1
  22   12   26 1
  23   13   14 1
  24   13   27 1
  25   13   28 1
  26   14   15 1
  27   14   29 1
  28   14   30 1
  29   15   16 1
  30   15   31 1
  31   15   32 1
  32   16   17 1
  33   16   33 1
  34   16   34 1
  35   17   18 1
  36   17   35 1
  37   17   36 1
  38   18   37 1
  39   18   38 1
  40   18   39 1
  41   19   40 1
  42   19   41 1
  43   19   42 1

#	End of record

