#	Name: ASD02860011
#	Creating user name:	WinNT
#	Creation time:	15. 06. 2019 20:26

#	Modifying user name:	WinNT
#	Modification time:	15. 06. 2019 20:26

#	Program:	/corina/corina34_cracker 3.40 0067  02.08.2006

@<TRIPOS>MOLECULE
ASD02860011
 126  129    0    0    0
SMALL
NO_CHARGES


@<TRIPOS>ATOM
   1 N1             0.6059     2.8370    -0.9212 N.3     
   2 C2             0.5658     1.4930    -0.3294 C.3     
   3 C3             1.4977     1.4369     0.8535 C.2     
   4 C4             1.0034     0.4631    -1.3728 C.3     
   5 N5             1.3452     0.4765     1.7867 N.am    
   6 O6             2.3851     2.2560     0.9657 O.2     
   7 C7             0.0028     0.4328    -2.4993 C.2     
   8 C8            -1.0352    -0.4094    -2.6229 C.2     
   9 N9            -1.7223    -0.1370    -3.7743 N.pl3   
  10 C10           -1.1282     0.9139    -4.4364 C.ar    
  11 C11           -0.0255     1.3210    -3.6638 C.ar    
  12 C12           -1.4114     1.5805    -5.6243 C.ar    
  13 C13           -0.6087     2.6231    -6.0319 C.ar    
  14 C14            0.4822     3.0170    -5.2689 C.ar    
  15 C15            0.7742     2.3812    -4.0954 C.ar    
  16 C16            2.2512     0.4220     2.9366 C.3     
  17 C17            2.1503     1.7072     3.7170 C.2     
  18 N18            2.5590     1.7501     5.0006 N.am    
  19 O19            1.7013     2.7030     3.1900 O.2     
  20 C20            3.6881     0.2351     2.4454 C.3     
  21 C21            3.8200    -1.1270     1.7612 C.3     
  22 C22            5.2569    -1.3139     1.2699 C.3     
  23 N23            5.3833    -2.6182     0.6148 N.pl3   
  24 C24            6.5923    -3.0097     0.0902 C.2     
  25 N25            6.7108    -4.2337    -0.5247 N.am    
  26 N26            7.6260    -2.2205     0.1757 N.2     
  27 C27            2.4609     2.9995     5.7593 C.3     
  28 C28            2.9876     2.7771     7.1784 C.3     
  29 C29            2.8851     4.0819     7.9708 C.3     
  30 N30            3.3908     3.8684     9.3334 N.3     
  31 C31            3.3077     5.1029    10.1252 C.3     
  32 C32            3.8421     4.8416    11.5348 C.3     
  33 C33            3.7556     6.1274    12.3596 C.3     
  34 N34            4.2672     5.8771    13.7093 N.am    
  35 S35            8.1910    -4.7544    -1.0540 S.o2    
  36 O36            9.0528    -4.7289     0.0756 O.2     
  37 O37            7.9529    -5.9250    -1.8236 O.2     
  38 C38            8.8020    -3.5387    -2.1735 C.ar    
  39 C39            8.1430    -3.3035    -3.3659 C.ar    
  40 C40            8.6233    -2.3522    -4.2428 C.ar    
  41 C41            9.7695    -1.6282    -3.9312 C.ar    
  42 C42           10.4247    -1.8630    -2.7348 C.ar    
  43 C43            9.9363    -2.8163    -1.8574 C.ar    
  44 O44           10.2179    -0.7079    -4.8242 O.3     
  45 C45           11.1447     0.2752    -4.3611 C.3     
  46 C46           12.2678    -0.4392    -3.5985 C.3     
  47 C47           11.6633    -1.0927    -2.3532 C.3     
  48 C48           10.6519    -3.0750    -0.5566 C.3     
  49 C49            6.9013    -4.0858    -3.7081 C.3     
  50 C50            7.9040    -2.0972    -5.5423 C.3     
  51 C51           11.7324     1.0316    -5.5542 C.3     
  52 C52           10.4319     1.2565    -3.4285 C.3     
  53 C53            4.2884     6.8729    14.6173 C.2     
  54 C54            4.8148     6.6155    16.0057 C.3     
  55 O55            3.8839     7.9761    14.3170 O.2     
  56 C56            4.7282     7.9013    16.8305 C.3     
  57 C57            5.2626     7.6400    18.2401 C.3     
  58 C58            5.1761     8.9257    19.0648 C.3     
  59 C59            5.7105     8.6644    20.4744 C.3     
  60 H60            1.5377     3.0674    -1.2322 H       
  61 H61           -0.0581     2.9196    -1.6763 H       
  62 H62           -0.4499     1.2701    -0.0026 H       
  63 H63            1.9832     0.7365    -1.7644 H       
  64 H64            1.0591    -0.5221    -0.9098 H       
  65 H65            0.6354    -0.1786     1.6969 H       
  66 H66           -1.2897    -1.1873    -1.9182 H       
  67 H67           -2.5104    -0.6134    -4.0789 H       
  68 H68           -2.2576     1.2814    -6.2250 H       
  69 H69           -0.8300     3.1391    -6.9545 H       
  70 H70            1.1018     3.8362    -5.6029 H       
  71 H71            1.6245     2.6931    -3.5070 H       
  72 H72            1.9746    -0.4150     3.5777 H       
  73 H73            2.9180     0.9536     5.4221 H       
  74 H74            3.9346     1.0240     1.7348 H       
  75 H75            4.3711     0.2834     3.2934 H       
  76 H76            3.5734    -1.9160     2.4717 H       
  77 H77            3.1369    -1.1753     0.9131 H       
  78 H78            5.5035    -0.5250     0.5594 H       
  79 H79            5.9400    -1.2656     2.1180 H       
  80 H80            4.6139    -3.2055     0.5511 H       
  81 H81            5.9275    -4.7922    -0.6484 H       
  82 H82            8.4547    -2.4567    -0.2697 H       
  83 H83            3.0546     3.7704     5.2680 H       
  84 H84            1.4190     3.3166     5.8039 H       
  85 H85            2.3939     2.0062     7.6697 H       
  86 H86            4.0295     2.4600     7.1338 H       
  87 H87            3.4788     4.8528     7.4795 H       
  88 H88            1.8432     4.3990     8.0154 H       
  89 H89            2.8987     3.1137     9.7876 H       
  90 H90            3.9043     5.8809     9.6489 H       
  91 H91            2.2688     5.4271    10.1848 H       
  92 H92            3.2455     4.0636    12.0111 H       
  93 H93            4.8811     4.5174    11.4752 H       
  94 H94            4.3522     6.9054    11.8833 H       
  95 H95            2.7166     6.4516    12.4192 H       
  96 H96            4.5907     4.9948    13.9495 H       
  97 H97           12.7150    -1.2034    -4.2341 H       
  98 H98           13.0278     0.2836    -3.3018 H       
  99 H99           11.4018    -0.3209    -1.6292 H       
 100 H100          12.3913    -1.7726    -1.9107 H       
 101 H101          10.0771    -2.6483     0.2653 H       
 102 H102          10.7569    -4.1496    -0.4072 H       
 103 H103          11.6392    -2.6142    -0.5872 H       
 104 H104           6.0246    -3.5594    -3.3305 H       
 105 H105           6.8243    -4.1901    -4.7903 H       
 106 H106           6.9567    -5.0737    -3.2509 H       
 107 H107           7.1534    -1.3205    -5.3958 H       
 108 H108           8.6206    -1.7723    -6.2966 H       
 109 H109           7.4177    -3.0144    -5.8744 H       
 110 H110          10.9295     1.5225    -6.1043 H       
 111 H111          12.4390     1.7808    -5.1971 H       
 112 H112          12.2471     0.3305    -6.2111 H       
 113 H113          10.0229     0.7151    -2.5754 H       
 114 H114          11.1421     2.0050    -3.0771 H       
 115 H115           9.6228     1.7484    -3.9684 H       
 116 H116           4.2182     5.8375    16.4820 H       
 117 H117           5.8537     6.2913    15.9461 H       
 118 H118           5.3249     8.6793    16.3542 H       
 119 H119           3.6893     8.2255    16.8901 H       
 120 H120           4.6660     6.8620    18.7164 H       
 121 H121           6.3016     7.3158    18.1805 H       
 122 H122           5.7727     9.7037    18.5885 H       
 123 H123           4.1371     9.2499    19.1244 H       
 124 H124           5.1138     7.8864    20.9507 H       
 125 H125           6.7494     8.3402    20.4148 H       
 126 H126           5.6488     9.5804    21.0620 H       
@<TRIPOS>BOND
   1    1    2 1
   2    1   60 1
   3    1   61 1
   4    2    3 1
   5    2    4 1
   6    2   62 1
   7    3    5 am
   8    3    6 2
   9    4    7 1
  10    4   63 1
  11    4   64 1
  12    5   16 1
  13    5   65 1
  14    7    8 2
  15    7   11 1
  16    8    9 1
  17    8   66 1
  18    9   10 1
  19    9   67 1
  20   10   11 ar
  21   10   12 ar
  22   11   15 ar
  23   12   13 ar
  24   12   68 1
  25   13   14 ar
  26   13   69 1
  27   14   15 ar
  28   14   70 1
  29   15   71 1
  30   16   17 1
  31   16   20 1
  32   16   72 1
  33   17   18 am
  34   17   19 2
  35   18   27 1
  36   18   73 1
  37   20   21 1
  38   20   74 1
  39   20   75 1
  40   21   22 1
  41   21   76 1
  42   21   77 1
  43   22   23 1
  44   22   78 1
  45   22   79 1
  46   23   24 1
  47   23   80 1
  48   24   25 1
  49   24   26 2
  50   25   35 am
  51   25   81 1
  52   26   82 1
  53   27   28 1
  54   27   83 1
  55   27   84 1
  56   28   29 1
  57   28   85 1
  58   28   86 1
  59   29   30 1
  60   29   87 1
  61   29   88 1
  62   30   31 1
  63   30   89 1
  64   31   32 1
  65   31   90 1
  66   31   91 1
  67   32   33 1
  68   32   92 1
  69   32   93 1
  70   33   34 1
  71   33   94 1
  72   33   95 1
  73   34   53 am
  74   34   96 1
  75   35   36 2
  76   35   37 2
  77   35   38 1
  78   38   39 ar
  79   38   43 ar
  80   39   40 ar
  81   39   49 1
  82   40   41 ar
  83   40   50 1
  84   41   42 ar
  85   41   44 1
  86   42   43 ar
  87   42   47 1
  88   43   48 1
  89   44   45 1
  90   45   46 1
  91   45   51 1
  92   45   52 1
  93   46   47 1
  94   46   97 1
  95   46   98 1
  96   47   99 1
  97   47  100 1
  98   48  101 1
  99   48  102 1
 100   48  103 1
 101   49  104 1
 102   49  105 1
 103   49  106 1
 104   50  107 1
 105   50  108 1
 106   50  109 1
 107   51  110 1
 108   51  111 1
 109   51  112 1
 110   52  113 1
 111   52  114 1
 112   52  115 1
 113   53   54 1
 114   53   55 2
 115   54   56 1
 116   54  116 1
 117   54  117 1
 118   56   57 1
 119   56  118 1
 120   56  119 1
 121   57   58 1
 122   57  120 1
 123   57  121 1
 124   58   59 1
 125   58  122 1
 126   58  123 1
 127   59  124 1
 128   59  125 1
 129   59  126 1

#	End of record

