#	Name: ASD03910030
#	Creating user name:	WinNT
#	Creation time:	15. 06. 2019 20:47

#	Modifying user name:	WinNT
#	Modification time:	15. 06. 2019 20:47

#	Program:	/corina/corina34_cracker 3.40 0067  02.08.2006

@<TRIPOS>MOLECULE
ASD03910030
  58   60    0    0    0
SMALL
NO_CHARGES


@<TRIPOS>ATOM
   1 C1             0.6123    -0.0272     0.3148 C.ar    
   2 C2             1.5667     0.6674     1.0351 C.ar    
   3 C3             1.2230     1.8270     1.7053 C.ar    
   4 C4            -0.0756     2.2949     1.6576 C.ar    
   5 C5            -1.0364     1.5996     0.9351 C.ar    
   6 C6            -0.6866     0.4387     0.2581 C.ar    
   7 N7            -2.3530     2.0709     0.8848 N.am    
   8 C8            -2.5934     3.3968     0.8548 C.2     
   9 C9            -4.0039     3.9034     0.6974 C.3     
  10 O10           -1.6745     4.1821     0.9545 O.2     
  11 C11           -3.9990     5.4104     0.6941 C.ar    
  12 C12           -3.8649     6.0975    -0.4982 C.ar    
  13 C13           -3.8601     7.4789    -0.5038 C.ar    
  14 C14           -3.9899     8.1768     0.6882 C.ar    
  15 C15           -4.1243     7.4850     1.8832 C.ar    
  16 C16           -4.1342     6.1035     1.8828 C.ar    
  17 O17           -3.9850     9.5358     0.6853 O.3     
  18 C18           -4.1832    10.1879     1.9413 C.3     
  19 C19           -3.1422     9.7145     2.9228 C.2     
  20 C20            0.9913    -1.2906    -0.4141 C.3     
  21 C21            2.2663     2.5809     2.4891 C.3     
  22 O22           -3.4253     9.5909     4.0909 O.2     
  23 O23           -1.9006     9.4302     2.4993 O.3     
  24 C24           -4.0599    11.6786     1.7582 C.ar    
  25 C25           -3.2337    12.1882     0.7740 C.ar    
  26 C26           -3.1205    13.5556     0.6061 C.ar    
  27 C27           -3.8340    14.4135     1.4221 C.ar    
  28 C28           -4.6609    13.9040     2.4057 C.ar    
  29 C29           -4.7773    12.5365     2.5708 C.ar    
  30 C30           -5.5773     9.8532     2.4754 C.3     
  31 C31           -6.6343    10.3383     1.4812 C.3     
  32 H32            2.5827     0.3032     1.0746 H       
  33 H33           -0.3436     3.2003     2.1818 H       
  34 H34           -1.4315    -0.1041    -0.3049 H       
  35 H35           -3.0926     1.4435     0.8714 H       
  36 H36           -4.4179     3.5394    -0.2429 H       
  37 H37           -4.6137     3.5438     1.5262 H       
  38 H38           -3.7635     5.5538    -1.4258 H       
  39 H39           -3.7550     8.0152    -1.4354 H       
  40 H40           -4.2255     8.0259     2.8124 H       
  41 H41           -4.2388     5.5645     2.8128 H       
  42 H42            0.8529    -2.1466     0.2464 H       
  43 H43            0.3595    -1.4054    -1.2948 H       
  44 H44            2.0357    -1.2336    -0.7210 H       
  45 H45            2.7476     3.3140     1.8418 H       
  46 H46            1.7923     3.0918     3.3272 H       
  47 H47            3.0136     1.8821     2.8651 H       
  48 H48           -1.2674     9.1301     3.1658 H       
  49 H49           -2.6763    11.5179     0.1364 H       
  50 H50           -2.4745    13.9537    -0.1624 H       
  51 H51           -3.7450    15.4819     1.2914 H       
  52 H52           -5.2180    14.5743     3.0435 H       
  53 H53           -5.4234    12.1384     3.3393 H       
  54 H54           -5.6677     8.7747     2.6044 H       
  55 H55           -5.7271    10.3478     3.4351 H       
  56 H56           -6.5439    11.4168     1.3521 H       
  57 H57           -6.4845     9.8437     0.5215 H       
  58 H58           -7.6275    10.0998     1.8617 H       
@<TRIPOS>BOND
   1    1    2 ar
   2    1   20 1
   3    1    6 ar
   4    2    3 ar
   5    2   32 1
   6    3    4 ar
   7    3   21 1
   8    4    5 ar
   9    4   33 1
  10    5    6 ar
  11    5    7 1
  12    6   34 1
  13    7    8 am
  14    7   35 1
  15    8    9 1
  16    8   10 2
  17    9   11 1
  18    9   36 1
  19    9   37 1
  20   11   12 ar
  21   11   16 ar
  22   12   13 ar
  23   12   38 1
  24   13   14 ar
  25   13   39 1
  26   14   15 ar
  27   14   17 1
  28   15   16 ar
  29   15   40 1
  30   16   41 1
  31   17   18 1
  32   18   19 1
  33   18   24 1
  34   18   30 1
  35   19   22 2
  36   19   23 1
  37   20   42 1
  38   20   43 1
  39   20   44 1
  40   21   45 1
  41   21   46 1
  42   21   47 1
  43   23   48 1
  44   24   25 ar
  45   24   29 ar
  46   25   26 ar
  47   25   49 1
  48   26   27 ar
  49   26   50 1
  50   27   28 ar
  51   27   51 1
  52   28   29 ar
  53   28   52 1
  54   29   53 1
  55   30   31 1
  56   30   54 1
  57   30   55 1
  58   31   56 1
  59   31   57 1
  60   31   58 1

#	End of record

