#	Name: ASD03330392
#	Creating user name:	WinNT
#	Creation time:	15. 06. 2019 20:37

#	Modifying user name:	WinNT
#	Modification time:	15. 06. 2019 20:37

#	Program:	/corina/corina34_cracker 3.40 0067  02.08.2006

@<TRIPOS>MOLECULE
ASD03330392
  60   62    0    0    0
SMALL
NO_CHARGES


@<TRIPOS>ATOM
   1 C1             1.1310     2.1218    -0.0745 C.3     
   2 N2             0.8330     0.6815    -0.0670 N.am    
   3 C3             1.2283    -0.1139    -1.2451 C.3     
   4 C4             2.6131     0.3397    -1.6373 C.2     
   5 N5             3.2282     1.4352    -1.1250 N.pl3   
   6 C6             2.6498     2.3244    -0.1148 C.3     
   7 C7             3.4658    -0.2261    -2.5290 C.2     
   8 N8             4.5871     0.5289    -2.5587 N.2     
   9 C9             4.4507     1.5296    -1.7193 C.2     
  10 C10            5.4562     2.5842    -1.4625 C.ar    
  11 C11            6.5264     2.7602    -2.3401 C.ar    
  12 C12            3.2151    -1.4434    -3.3208 C.2     
  13 O13            2.1607    -2.0383    -3.2042 O.2     
  14 C14            3.9051    -3.1077    -4.9614 C.3     
  15 N15            4.1543    -1.8975    -4.1742 N.am    
  16 C16            0.2177     0.1055     0.9847 C.2     
  17 O17           -0.0198    -1.0861     0.9718 O.2     
  18 C18            7.4605     3.7457    -2.0953 C.ar    
  19 C19            7.3376     4.5583    -0.9824 C.ar    
  20 C20            6.2787     4.3888    -0.1084 C.ar    
  21 C21            5.3350     3.4104    -0.3449 C.ar    
  22 C22            5.2193    -3.7438    -5.3344 C.2     
  23 C23            3.1373    -2.7400    -6.2327 C.3     
  24 O24           -0.1338     0.8504     2.0497 O.3     
  25 O25            6.2121    -3.0578    -5.4563 O.2     
  26 C26            6.5410    -5.6790    -6.0017 C.3     
  27 N27            5.2915    -5.0749    -5.5326 N.am    
  28 C28           -0.7929     0.1634     3.1461 C.3     
  29 C29            3.9122    -1.6704    -7.0050 C.3     
  30 C30            2.9750    -3.9842    -7.1083 C.3     
  31 C31            1.7571    -2.1978    -5.8562 C.3     
  32 H32            0.6791     2.5823    -0.9531 H       
  33 H33            0.7264     2.5818     0.8269 H       
  34 H34            1.2420    -1.1737    -0.9909 H       
  35 H35            0.5323     0.0643    -2.0648 H       
  36 H36            2.8723     3.3602    -0.3712 H       
  37 H37            3.0743     2.0910     0.8616 H       
  38 H38            6.6236     2.1263    -3.2090 H       
  39 H39            3.3160    -3.8099    -4.3715 H       
  40 H40            4.9952    -1.4231    -4.2671 H       
  41 H41            8.2896     3.8828    -2.7737 H       
  42 H42            8.0716     5.3281    -0.7950 H       
  43 H43            6.1882     5.0263     0.7586 H       
  44 H44            4.5088     3.2790     0.3381 H       
  45 H45            6.8095    -5.2538    -6.9688 H       
  46 H46            7.3349    -5.4763    -5.2827 H       
  47 H47            6.4084    -6.7562    -6.1025 H       
  48 H48            4.5161    -5.6330    -5.3646 H       
  49 H49           -1.7172    -0.2897     2.7877 H       
  50 H50           -0.1350    -0.6131     3.5362 H       
  51 H51           -1.0213     0.8774     3.9374 H       
  52 H52            4.8955    -2.0567    -7.2733 H       
  53 H53            3.3652    -1.4085    -7.9108 H       
  54 H54            4.0278    -0.7840    -6.3813 H       
  55 H55            2.3807    -4.7274    -6.5768 H       
  56 H56            2.4718    -3.7124    -8.0361 H       
  57 H57            3.9570    -4.3991    -7.3356 H       
  58 H58            1.8727    -1.3114    -5.2324 H       
  59 H59            1.2102    -1.9358    -6.7619 H       
  60 H60            1.2051    -2.9598    -5.3059 H       
@<TRIPOS>BOND
   1    1    2 1
   2    1    6 1
   3    1   32 1
   4    1   33 1
   5    2    3 1
   6    2   16 am
   7    3    4 1
   8    3   34 1
   9    3   35 1
  10    4    5 1
  11    4    7 2
  12    5    6 1
  13    5    9 1
  14    6   36 1
  15    6   37 1
  16    7    8 1
  17    7   12 1
  18    8    9 2
  19    9   10 1
  20   10   11 ar
  21   10   21 ar
  22   11   18 ar
  23   11   38 1
  24   12   13 2
  25   12   15 am
  26   14   15 1
  27   14   22 1
  28   14   23 1
  29   14   39 1
  30   15   40 1
  31   16   17 2
  32   16   24 1
  33   18   19 ar
  34   18   41 1
  35   19   20 ar
  36   19   42 1
  37   20   21 ar
  38   20   43 1
  39   21   44 1
  40   22   25 2
  41   22   27 am
  42   23   29 1
  43   23   30 1
  44   23   31 1
  45   24   28 1
  46   26   27 1
  47   26   45 1
  48   26   46 1
  49   26   47 1
  50   27   48 1
  51   28   49 1
  52   28   50 1
  53   28   51 1
  54   29   52 1
  55   29   53 1
  56   29   54 1
  57   30   55 1
  58   30   56 1
  59   30   57 1
  60   31   58 1
  61   31   59 1
  62   31   60 1

#	End of record

