#	Name: ASD01510071
#	Creating user name:	WinNT
#	Creation time:	15. 06. 2019 19:21

#	Modifying user name:	WinNT
#	Modification time:	15. 06. 2019 19:21

#	Program:	/corina/corina34_cracker 3.40 0067  02.08.2006

@<TRIPOS>MOLECULE
ASD01510071
  50   52    0    0    0
SMALL
NO_CHARGES


@<TRIPOS>ATOM
   1 C1            -2.2803    -2.7229     0.0063 C.2     
   2 C2            -1.1375    -2.0419     0.0023 C.2     
   3 C3             0.1458    -2.7594    -0.0174 C.2     
   4 O4             0.1625    -3.9753    -0.0301 O.2     
   5 N5             1.3036    -2.0695    -0.0215 N.am    
   6 C6             2.5147    -2.7443     0.0682 C.ar    
   7 C7             3.7210    -2.0514    -0.0428 C.ar    
   8 C8             4.9020    -2.7636     0.0525 C.ar    
   9 N9             4.8551    -4.0728     0.2450 N.ar    
  10 C10            3.6944    -4.7051     0.3467 C.ar    
  11 N11            2.5411    -4.0577     0.2663 N.ar    
  12 S12            3.6852    -6.4484     0.6026 S.3     
  13 C13            5.4187    -6.7620     0.6352 C.ar    
  14 C14            6.1291    -6.7153     1.8315 C.ar    
  15 C15            5.4258    -6.3944     3.1252 C.3     
  16 N16            7.4294    -6.9568     1.8175 N.ar    
  17 C17            8.0548    -7.2399     0.6849 C.ar    
  18 N18            7.4116    -7.2931    -0.4716 N.ar    
  19 C19            6.1097    -7.0682    -0.5339 C.ar    
  20 C20            5.3861    -7.1314    -1.8543 C.3     
  21 N21            9.4191    -7.4868     0.7106 N.3     
  22 C22            9.9266    -7.7802    -0.6370 C.3     
  23 C23           11.4444    -7.9678    -0.5779 C.3     
  24 N24           11.7646    -9.0600     0.3517 N.3     
  25 C25           11.2571    -8.7666     1.6993 C.3     
  26 C26            9.7392    -8.5790     1.6402 C.3     
  27 C27           13.2099    -9.3215     0.3789 C.3     
  28 H28           -2.2655    -3.8028    -0.0049 H       
  29 H29           -3.2229    -2.1960     0.0253 H       
  30 H30           -1.1524    -0.9621     0.0136 H       
  31 H31            1.2913    -1.1018    -0.0870 H       
  32 H32            3.7316    -0.9830    -0.2001 H       
  33 H33            5.8526    -2.2576    -0.0295 H       
  34 H34            5.0725    -7.3172     3.5853 H       
  35 H35            6.1191    -5.8937     3.8011 H       
  36 H36            4.5773    -5.7402     2.9249 H       
  37 H37            5.0317    -8.1477    -2.0261 H       
  38 H38            4.5366    -6.4486    -1.8361 H       
  39 H39            6.0666    -6.8435    -2.6556 H       
  40 H40            9.4616    -8.6928    -1.0100 H       
  41 H41            9.6883    -6.9516    -1.3038 H       
  42 H42           11.8193    -8.2141    -1.5713 H       
  43 H43           11.9115    -7.0461    -0.2308 H       
  44 H44           11.4954    -9.5952     2.3660 H       
  45 H45           11.7220    -7.8540     2.0722 H       
  46 H46            9.3643    -8.3326     2.6336 H       
  47 H47            9.2722    -9.5006     1.2931 H       
  48 H48           13.7357    -8.4228     0.7012 H       
  49 H49           13.4191   -10.1341     1.0746 H       
  50 H50           13.5472    -9.6017    -0.6190 H       
@<TRIPOS>BOND
   1    1    2 2
   2    1   28 1
   3    1   29 1
   4    2    3 1
   5    2   30 1
   6    3    4 2
   7    3    5 am
   8    5    6 1
   9    5   31 1
  10    6    7 ar
  11    6   11 ar
  12    7    8 ar
  13    7   32 1
  14    8    9 ar
  15    8   33 1
  16    9   10 ar
  17   10   11 ar
  18   10   12 1
  19   12   13 1
  20   13   14 ar
  21   13   19 ar
  22   14   15 1
  23   14   16 ar
  24   15   34 1
  25   15   35 1
  26   15   36 1
  27   16   17 ar
  28   17   18 ar
  29   17   21 1
  30   18   19 ar
  31   19   20 1
  32   20   37 1
  33   20   38 1
  34   20   39 1
  35   21   22 1
  36   21   26 1
  37   22   23 1
  38   22   40 1
  39   22   41 1
  40   23   24 1
  41   23   42 1
  42   23   43 1
  43   24   25 1
  44   24   27 1
  45   25   26 1
  46   25   44 1
  47   25   45 1
  48   26   46 1
  49   26   47 1
  50   27   48 1
  51   27   49 1
  52   27   50 1

#	End of record

