#	Name: ASD08150077
#	Creating user name:	WinNT
#	Creation time:	15. 06. 2019 21:15

#	Modifying user name:	WinNT
#	Modification time:	15. 06. 2019 21:15

#	Program:	/corina/corina34_cracker 3.40 0067  02.08.2006

@<TRIPOS>MOLECULE
ASD08150077
  40   40    0    0    0
SMALL
NO_CHARGES


@<TRIPOS>ATOM
   1 C1            -0.0184     1.5028     0.0103 C.2     
   2 C2             0.0021    -0.0041     0.0020 C.3     
   3 C3             1.4513    -0.4944    -0.0145 C.3     
   4 C4             1.4750    -2.0197     0.1029 C.3     
   5 C5             2.9242    -2.5100     0.0864 C.3     
   6 O6             1.0197     2.1211     0.0037 O.2     
   7 O7            -1.1898     2.1580     0.0194 O.3     
   8 N8             0.7457    -2.6092    -1.0279 N.3     
   9 C9             0.2323    -3.9423    -0.6857 C.3     
  10 C10           -0.5081    -4.5139    -1.8673 C.ar    
  11 C11            0.1692    -5.2694    -2.8066 C.ar    
  12 C12           -0.5073    -5.7945    -3.8905 C.ar    
  13 C13           -1.8674    -5.5632    -4.0362 C.ar    
  14 C14           -2.5448    -4.8049    -3.0924 C.ar    
  15 C15           -1.8648    -4.2868    -2.0072 C.ar    
  16 O16           -2.5351    -6.0784    -5.1020 O.3     
  17 C17           -3.9340    -5.7998    -5.1875 C.3     
  18 O18            2.0733    -0.1011    -1.2394 O.3     
  19 C19           -1.1335     3.6089     0.0270 C.3     
  20 H20           -0.4983    -0.3791     0.8948 H       
  21 H21           -0.5153    -0.3696    -0.8850 H       
  22 H22            1.9924    -0.0570     0.8246 H       
  23 H23            1.0005    -2.3197     1.0372 H       
  24 H24            3.4653    -2.0726     0.9254 H       
  25 H25            2.9411    -3.5967     0.1700 H       
  26 H26            3.3987    -2.2100    -0.8480 H       
  27 H27            0.0001    -2.0019    -1.3333 H       
  28 H28            1.0647    -4.5969    -0.4273 H       
  29 H29           -0.4454    -3.8635     0.1643 H       
  30 H30            1.2281    -5.4488    -2.6929 H       
  31 H31            0.0223    -6.3842    -4.6241 H       
  32 H32           -3.6036    -4.6235    -3.2036 H       
  33 H33           -2.3926    -3.7003    -1.2697 H       
  34 H34           -4.4381    -6.1969    -4.3063 H       
  35 H35           -4.0874    -4.7219    -5.2389 H       
  36 H36           -4.3438    -6.2682    -6.0824 H       
  37 H37            1.6434    -0.4548    -2.0301 H       
  38 H38           -0.6102     3.9569    -0.8636 H       
  39 H39           -2.1463     4.0118     0.0340 H       
  40 H40           -0.6017     3.9472     0.9164 H       
@<TRIPOS>BOND
   1    1    2 1
   2    1    6 2
   3    1    7 1
   4    2    3 1
   5    2   20 1
   6    2   21 1
   7    3    4 1
   8    3   18 1
   9    3   22 1
  10    4    5 1
  11    4    8 1
  12    4   23 1
  13    5   24 1
  14    5   25 1
  15    5   26 1
  16    7   19 1
  17    8    9 1
  18    8   27 1
  19    9   10 1
  20    9   28 1
  21    9   29 1
  22   10   11 ar
  23   10   15 ar
  24   11   12 ar
  25   11   30 1
  26   12   13 ar
  27   12   31 1
  28   13   14 ar
  29   13   16 1
  30   14   15 ar
  31   14   32 1
  32   15   33 1
  33   16   17 1
  34   17   34 1
  35   17   35 1
  36   17   36 1
  37   18   37 1
  38   19   38 1
  39   19   39 1
  40   19   40 1

#	End of record

