#	Name: ASD08178500
#	Creating user name:	WinNT
#	Creation time:	15. 06. 2019 21:19

#	Modifying user name:	WinNT
#	Modification time:	15. 06. 2019 21:19

#	Program:	/corina/corina34_cracker 3.40 0067  02.08.2006

@<TRIPOS>MOLECULE
ASD08178500
  84   89    0    0    0
SMALL
NO_CHARGES


@<TRIPOS>ATOM
   1 N1            -0.1757     0.8074    -0.3899 N.am    
   2 C2            -0.1250    -0.5858    -0.3577 C.ar    
   3 C3             1.1022    -1.2430    -0.4176 C.ar    
   4 N4            -1.2430    -1.2902    -0.2645 N.ar    
   5 N5            -1.2394    -2.5733    -0.2315 N.ar    
   6 C6            -0.1250    -3.2759    -0.2880 C.ar    
   7 C7             1.0987    -2.6291    -0.3817 C.ar    
   8 C8            -0.1803    -4.7813    -0.2448 C.3     
   9 C9            -0.9447    -5.2279     1.0030 C.3     
  10 C10           -1.0009    -6.7562     1.0469 C.3     
  11 C11           -1.7653    -7.2029     2.2948 C.3     
  12 C12           -1.8206    -8.7082     2.3380 C.2     
  13 N13           -0.9544    -9.4886     2.9021 N.2     
  14 N14           -1.1795   -10.7288     2.8290 N.2     
  15 C15           -2.2499   -11.1114     2.2006 C.2     
  16 S16           -3.0807    -9.7236     1.6360 S.3     
  17 N17           -2.6571   -12.4290     2.0208 N.am    
  18 C18           -1.9160   -13.4375     2.5209 C.2     
  19 C19           -2.3572   -14.8652     2.3260 C.3     
  20 O20           -0.8940   -13.1960     3.1276 O.2     
  21 N21           -1.3896   -15.7658     2.9577 N.pl3   
  22 C22           -1.3661     1.4374    -0.4400 C.2     
  23 C23           -1.4272     2.9407    -0.3539 C.3     
  24 O24           -2.3881     0.7945    -0.5544 O.2     
  25 C25           -2.8634     3.3904    -0.4331 C.ar    
  26 C26           -3.6100     3.5247     0.7231 C.ar    
  27 C27           -3.4311     3.6736    -1.6600 C.ar    
  28 C28           -4.7535     4.0876    -1.7322 C.ar    
  29 C29           -5.5020     4.2161    -0.5715 C.ar    
  30 C30           -4.9279     3.9366     0.6538 C.ar    
  31 C31           -1.3713   -16.1464     4.2846 C.ar    
  32 C32           -0.2720   -17.0101     4.4252 C.ar    
  33 N33            0.3113   -17.1100     3.2031 N.2     
  34 C34           -0.3462   -16.3868     2.3443 C.2     
  35 C35           -2.1659   -15.8550     5.3852 C.ar    
  36 C36           -1.8696   -16.4161     6.6090 C.ar    
  37 C37           -0.7835   -17.2688     6.7474 C.ar    
  38 C38            0.0089   -17.5674     5.6755 C.ar    
  39 C39            0.0037   -16.2484     0.8850 C.3     
  40 N40            1.0061   -15.1873     0.7203 N.3     
  41 C41            1.4428   -15.0879    -0.6799 C.3     
  42 C42            2.4397   -13.9340    -0.8172 C.3     
  43 O43            3.5346   -14.1476     0.0776 O.3     
  44 C44            3.1453   -14.2486     1.4500 C.3     
  45 C45            2.1556   -15.4057     1.6103 C.3     
  46 O46           -5.3142     4.3673    -2.9381 O.3     
  47 C47           -6.6799     4.7881    -2.9366 C.3     
  48 F48           -6.8059     5.9598    -2.1827 F       
  49 F49           -7.0941     5.0321    -4.2504 F       
  50 F50           -7.4765     3.7844    -2.3753 F       
  51 H51            0.6456     1.3231    -0.3722 H       
  52 H52            2.0272    -0.6901    -0.4901 H       
  53 H53            2.0212    -3.1888    -0.4293 H       
  54 H54           -0.6892    -5.1518    -1.1346 H       
  55 H55            0.8331    -5.1813    -0.2126 H       
  56 H56           -0.4359    -4.8573     1.8929 H       
  57 H57           -1.9582    -4.8278     0.9709 H       
  58 H58           -1.5098    -7.1268     0.1571 H       
  59 H59            0.0125    -7.1563     1.0791 H       
  60 H60           -1.2565    -6.8323     3.1846 H       
  61 H61           -2.7787    -6.8028     2.2626 H       
  62 H62           -3.4745   -12.6221     1.5355 H       
  63 H63           -3.3373   -15.0080     2.7811 H       
  64 H64           -2.4160   -15.0851     1.2601 H       
  65 H65           -0.9955     3.2683     0.5918 H       
  66 H66           -0.8644     3.3751    -1.1801 H       
  67 H67           -3.1630     3.3071     1.6819 H       
  68 H68           -2.8462     3.5732    -2.5623 H       
  69 H69           -6.5313     4.5385    -0.6251 H       
  70 H70           -5.5102     4.0365     1.5579 H       
  71 H71           -3.0119   -15.1915     5.2830 H       
  72 H72           -2.4868   -16.1903     7.4660 H       
  73 H73           -0.5626   -17.7007     7.7123 H       
  74 H74            0.8514   -18.2326     5.7943 H       
  75 H75            0.4089   -17.1912     0.5175 H       
  76 H76           -0.8923   -15.9929     0.3192 H       
  77 H77            1.9219   -16.0202    -0.9788 H       
  78 H78            0.5793   -14.9007    -1.3182 H       
  79 H79            2.8096   -13.8926    -1.8417 H       
  80 H80            1.9453   -12.9946    -0.5698 H       
  81 H81            4.0256   -14.4347     2.0653 H       
  82 H82            2.6715   -13.3184     1.7634 H       
  83 H83            1.8123   -15.4505     2.6439 H       
  84 H84            2.6460   -16.3431     1.3480 H       
@<TRIPOS>BOND
   1    1    2 1
   2    1   22 am
   3    1   51 1
   4    2    3 ar
   5    2    4 ar
   6    3    7 ar
   7    3   52 1
   8    4    5 ar
   9    5    6 ar
  10    6    7 ar
  11    6    8 1
  12    7   53 1
  13    8    9 1
  14    8   54 1
  15    8   55 1
  16    9   10 1
  17    9   56 1
  18    9   57 1
  19   10   11 1
  20   10   58 1
  21   10   59 1
  22   11   12 1
  23   11   60 1
  24   11   61 1
  25   12   13 2
  26   12   16 1
  27   13   14 1
  28   14   15 2
  29   15   16 1
  30   15   17 1
  31   17   18 am
  32   17   62 1
  33   18   19 1
  34   18   20 2
  35   19   21 1
  36   19   63 1
  37   19   64 1
  38   21   31 1
  39   21   34 1
  40   22   23 1
  41   22   24 2
  42   23   25 1
  43   23   65 1
  44   23   66 1
  45   25   26 ar
  46   25   27 ar
  47   26   30 ar
  48   26   67 1
  49   27   28 ar
  50   27   68 1
  51   28   29 ar
  52   28   46 1
  53   29   30 ar
  54   29   69 1
  55   30   70 1
  56   31   32 ar
  57   31   35 ar
  58   32   33 1
  59   32   38 ar
  60   33   34 2
  61   34   39 1
  62   35   36 ar
  63   35   71 1
  64   36   37 ar
  65   36   72 1
  66   37   38 ar
  67   37   73 1
  68   38   74 1
  69   39   40 1
  70   39   75 1
  71   39   76 1
  72   40   41 1
  73   40   45 1
  74   41   42 1
  75   41   77 1
  76   41   78 1
  77   42   43 1
  78   42   79 1
  79   42   80 1
  80   43   44 1
  81   44   45 1
  82   44   81 1
  83   44   82 1
  84   45   83 1
  85   45   84 1
  86   46   47 1
  87   47   48 1
  88   47   49 1
  89   47   50 1

#	End of record

