#	Name: ASD01913997
#	Creating user name:	WinNT
#	Creation time:	15. 06. 2019 20:02

#	Modifying user name:	WinNT
#	Modification time:	15. 06. 2019 20:02

#	Program:	/corina/corina34_cracker 3.40 0067  02.08.2006

@<TRIPOS>MOLECULE
ASD01913997
  51   53    0    0    0
SMALL
NO_CHARGES


@<TRIPOS>ATOM
   1 C1            -0.0167     1.3784     0.0096 C.ar    
   2 C2             0.0021    -0.0041     0.0020 C.ar    
   3 C3             1.2074    -0.6814    -0.0127 C.ar    
   4 C4             2.3963     0.0221    -0.0203 C.ar    
   5 C5             2.3802     1.4093    -0.0132 C.ar    
   6 C6             1.1695     2.0865     0.0021 C.ar    
   7 O7             3.5484     2.1036    -0.0202 O.3     
   8 C8             3.4557     3.5296    -0.0122 C.3     
   9 C9             4.8408     4.1231    -0.0217 C.ar    
  10 N10            4.9848     5.4345    -0.0163 N.ar    
  11 C11            6.1723     6.0038    -0.0242 C.ar    
  12 C12            7.3314     5.2273    -0.0390 C.ar    
  13 C13            7.2108     3.8323    -0.0449 C.ar    
  14 C14            5.9407     3.2838    -0.0301 C.ar    
  15 C15            8.6644     5.8666    -0.0488 C.2     
  16 N16            8.7673     7.2104    -0.0433 N.am    
  17 C17           10.0882     7.8440    -0.0530 C.3     
  18 O18            9.6675     5.1803    -0.0616 O.2     
  19 C19            9.9769     9.2462    -0.6549 C.3     
  20 C20           10.6162     7.9443     1.3795 C.3     
  21 C21           11.3564     9.9078    -0.6650 C.3     
  22 C22           11.2451    11.3100    -1.2670 C.3     
  23 C23           10.7171    11.2097    -2.6995 C.3     
  24 C24            9.3376    10.5480    -2.6894 C.3     
  25 C25            9.4489     9.1458    -2.0874 C.3     
  26 H26           -0.9595     1.9052     0.0170 H       
  27 H27           -0.9263    -0.5558     0.0080 H       
  28 H28            1.2194    -1.7613    -0.0179 H       
  29 H29            3.3375    -0.5074    -0.0315 H       
  30 H30            1.1543     3.1664     0.0073 H       
  31 H31            2.9113     3.8632    -0.8956 H       
  32 H32            2.9274     3.8543     0.8842 H       
  33 H33            6.2496     7.0810    -0.0194 H       
  34 H34            8.0868     3.2007    -0.0564 H       
  35 H35            5.8091     2.2119    -0.0342 H       
  36 H36            7.9668     7.7581    -0.0331 H       
  37 H37           10.7741     7.2449    -0.6519 H       
  38 H38            9.2910     9.8453    -0.0560 H       
  39 H39           11.5990     8.4157     1.3723 H       
  40 H40            9.9303     8.5434     1.9784 H       
  41 H41           10.6955     6.9454     1.8083 H       
  42 H42           11.7325     9.9793     0.3555 H       
  43 H43           12.0423     9.3087    -1.2639 H       
  44 H44           10.5592    11.9091    -0.6681 H       
  45 H45           12.2279    11.7814    -1.2742 H       
  46 H46           10.6378    12.2086    -3.1283 H       
  47 H47           11.4030    10.6106    -3.2984 H       
  48 H48            8.6517    11.1471    -2.0905 H       
  49 H49            8.9615    10.4766    -3.7099 H       
  50 H50           10.1348     8.5467    -2.6864 H       
  51 H51            8.4661     8.6745    -2.0802 H       
@<TRIPOS>BOND
   1    1    2 ar
   2    1    6 ar
   3    1   26 1
   4    2    3 ar
   5    2   27 1
   6    3    4 ar
   7    3   28 1
   8    4    5 ar
   9    4   29 1
  10    5    6 ar
  11    5    7 1
  12    6   30 1
  13    7    8 1
  14    8    9 1
  15    8   31 1
  16    8   32 1
  17    9   10 ar
  18    9   14 ar
  19   10   11 ar
  20   11   12 ar
  21   11   33 1
  22   12   13 ar
  23   12   15 1
  24   13   14 ar
  25   13   34 1
  26   14   35 1
  27   15   16 am
  28   15   18 2
  29   16   17 1
  30   16   36 1
  31   17   19 1
  32   17   20 1
  33   17   37 1
  34   19   21 1
  35   19   25 1
  36   19   38 1
  37   20   39 1
  38   20   40 1
  39   20   41 1
  40   21   22 1
  41   21   42 1
  42   21   43 1
  43   22   23 1
  44   22   44 1
  45   22   45 1
  46   23   24 1
  47   23   46 1
  48   23   47 1
  49   24   25 1
  50   24   48 1
  51   24   49 1
  52   25   50 1
  53   25   51 1

#	End of record

