#	Name: ASD09116054
#	Creating user name:	WinNT
#	Creation time:	15. 06. 2019 21:20

#	Modifying user name:	WinNT
#	Modification time:	15. 06. 2019 21:20

#	Program:	/corina/corina34_cracker 3.40 0067  02.08.2006

@<TRIPOS>MOLECULE
ASD09116054
  30   31    0    0    0
SMALL
NO_CHARGES


@<TRIPOS>ATOM
   1 C1            -0.0165     1.3661     0.0096 C.ar    
   2 C2             0.0021    -0.0041     0.0020 C.ar    
   3 C3            -1.2087    -0.8982    -0.0403 C.3     
   4 C4            -2.6185    -0.3101    -0.0852 C.3     
   5 C5            -3.0273     0.2019     1.2974 C.3     
   6 C6            -1.9199     0.8049     2.1479 C.3     
   7 C7            -1.8117     2.1908     1.5094 C.3     
   8 C8            -1.3069     2.1550     0.0574 C.3     
   9 N9             1.1267     2.0450     0.0023 N.ar    
  10 C10            2.2876     1.4256     0.0076 C.ar    
  11 N11            2.3609     0.1105     0.0235 N.ar    
  12 C12            1.2612    -0.6319     0.0219 C.ar    
  13 N13            1.3543    -2.0145     0.0407 N.pl3   
  14 N14            2.5805    -2.6162     0.0609 N.3     
  15 H15           -1.1050    -1.5395    -0.9174 H       
  16 H16           -1.1627    -1.5476     0.8352 H       
  17 H17           -2.7341     0.4217    -0.8565 H       
  18 H18           -3.3059    -1.1429    -0.3332 H       
  19 H19           -3.8068     0.9526     1.1602 H       
  20 H20           -3.4651    -0.6340     1.8466 H       
  21 H21           -2.2240     0.8808     3.1998 H       
  22 H22           -0.9865     0.2462     2.0710 H       
  23 H23           -2.7917     2.6640     1.5223 H       
  24 H24           -1.1209     2.7940     2.0976 H       
  25 H25           -1.0600     3.1941    -0.2239 H       
  26 H26           -2.0408     1.7984    -0.6248 H       
  27 H27            3.1981     2.0057    -0.0026 H       
  28 H28            0.5488    -2.5549     0.0394 H       
  29 H29            2.4900    -3.6211     0.0729 H       
  30 H30            3.1449    -2.3133    -0.7187 H       
@<TRIPOS>BOND
   1    1    2 ar
   2    1    9 ar
   3    1    8 1
   4    2    3 1
   5    2   12 ar
   6    3    4 1
   7    3   15 1
   8    3   16 1
   9    4    5 1
  10    4   17 1
  11    4   18 1
  12    5    6 1
  13    5   19 1
  14    5   20 1
  15    6    7 1
  16    6   21 1
  17    6   22 1
  18    7    8 1
  19    7   23 1
  20    7   24 1
  21    8   25 1
  22    8   26 1
  23    9   10 ar
  24   10   11 ar
  25   10   27 1
  26   11   12 ar
  27   12   13 1
  28   13   14 1
  29   13   28 1
  30   14   29 1
  31   14   30 1

#	End of record

