#	Name: ASD02448084
#	Creating user name:	WinNT
#	Creation time:	15. 06. 2019 20:21

#	Modifying user name:	WinNT
#	Modification time:	15. 06. 2019 20:21

#	Program:	/corina/corina34_cracker 3.40 0067  02.08.2006

@<TRIPOS>MOLECULE
ASD02448084
  83   88    0    0    0
SMALL
NO_CHARGES


@<TRIPOS>ATOM
   1 C1             2.2039     0.8550     2.0903 C.ar    
   2 C2             2.1750    -0.4779     1.7322 C.ar    
   3 C3             3.2971    -1.0699     1.1685 C.ar    
   4 C4             4.4489    -0.3219     0.9651 C.ar    
   5 C5             4.4787     1.0110     1.3230 C.ar    
   6 C6             3.3560     1.6038     1.8867 C.ar    
   7 N7             3.3856     2.9539     2.2489 N.am    
   8 C8             3.6958     4.1101     1.3979 C.3     
   9 C9             3.6180     5.3885     2.1684 C.2     
  10 N10            3.2881     5.2466     3.4599 N.am    
  11 S11            3.0695     3.6212     3.7449 S.o2    
  12 O12            3.8367     6.4698     1.6646 O.2     
  13 O13            1.6884     3.4252     4.0162 O.2     
  14 O14            4.1150     3.2032     4.6117 O.2     
  15 N15            3.2672    -2.4251     0.8044 N.pl3   
  16 C16            2.9626    -3.4789     1.6234 C.2     
  17 C17            3.5296    -2.9341    -0.4276 C.2     
  18 N18            3.4023    -4.2311    -0.3839 N.2     
  19 C19            3.0537    -4.6024     0.8646 C.2     
  20 C20            2.8125    -5.9911     1.3277 C.ar    
  21 C21            2.9412    -7.0577     0.4381 C.ar    
  22 C22            2.4622    -6.2348     2.6539 C.ar    
  23 C23            2.2387    -7.5285     3.0799 C.ar    
  24 C24            2.3620    -8.5835     2.1923 C.ar    
  25 C25            2.7154    -8.3482     0.8746 C.ar    
  26 Cl26           2.0800   -10.2081     2.7353 Cl      
  27 Cl27           3.3837    -6.7635    -1.2146 Cl      
  28 C28            3.9057    -2.1309    -1.6459 C.3     
  29 C29            2.6739    -1.8651    -2.4724 C.ar    
  30 C30            1.9514    -0.7018    -2.2778 C.ar    
  31 C31            2.2733    -2.7827    -3.4267 C.ar    
  32 C32            1.1462    -2.5442    -4.1868 C.ar    
  33 C33            0.4115    -1.3764    -3.9913 C.ar    
  34 C34            0.8227    -0.4530    -3.0322 C.ar    
  35 C35           -0.8008    -1.1142    -4.8058 C.ar    
  36 C36           -1.5354     0.0535    -4.6104 C.ar    
  37 C37           -1.2055    -2.0322    -5.7728 C.ar    
  38 C38           -2.3339    -1.7833    -6.5276 C.ar    
  39 C39           -3.0624    -0.6250    -6.3257 C.ar    
  40 C40           -2.6623     0.2922    -5.3707 C.ar    
  41 C41           -4.2931    -0.3583    -7.1535 C.3     
  42 C42           -5.3099    -1.4798    -6.9317 C.3     
  43 C43           -4.9090     0.9785    -6.7357 C.3     
  44 C44           -3.9099    -0.3027    -8.6337 C.3     
  45 C45            2.6977     4.1617     0.2394 C.3     
  46 C46            2.9122     2.9523    -0.6728 C.3     
  47 C47            2.0123     3.0761    -1.9039 C.3     
  48 H48            1.3295     1.3166     2.5247 H       
  49 H49            1.2794    -1.0603     1.8908 H       
  50 H50            5.3218    -0.7830     0.5272 H       
  51 H51            5.3748     1.5927     1.1651 H       
  52 H52            4.7022     3.9969     0.9948 H       
  53 H53            3.1914     5.9609     4.1090 H       
  54 H54            2.7006    -3.4273     2.6699 H       
  55 H55            2.3660    -5.4127     3.3477 H       
  56 H56            1.9675    -7.7181     4.1080 H       
  57 H57            2.8102    -9.1747     0.1859 H       
  58 H58            4.3459    -1.1835    -1.3348 H       
  59 H59            4.6286    -2.6895    -2.2405 H       
  60 H60            2.2708     0.0131    -1.5339 H       
  61 H61            2.8436    -3.6873    -3.5776 H       
  62 H62            0.8344    -3.2611    -4.9319 H       
  63 H63            0.2568     0.4535    -2.8764 H       
  64 H64           -1.2239     0.7703    -3.8650 H       
  65 H65           -0.6370    -2.9366    -5.9317 H       
  66 H66           -2.6485    -2.4941    -7.2774 H       
  67 H67           -3.2350     1.1949    -5.2170 H       
  68 H68           -5.5829    -1.5194    -5.8772 H       
  69 H69           -6.2000    -1.2869    -7.5305 H       
  70 H70           -4.8711    -2.4321    -7.2294 H       
  71 H71           -4.1847     1.7775    -6.8937 H       
  72 H72           -5.7992     1.1714    -7.3345 H       
  73 H73           -5.1820     0.9389    -5.6812 H       
  74 H74           -3.4711    -1.2551    -8.9314 H       
  75 H75           -4.8000    -0.1098    -9.2325 H       
  76 H76           -3.1855     0.4963    -8.7918 H       
  77 H77            1.6818     4.1436     0.6340 H       
  78 H78            2.8499     5.0783    -0.3306 H       
  79 H79            3.9552     2.9149    -0.9874 H       
  80 H80            2.6632     2.0398    -0.1310 H       
  81 H81            0.9693     3.1135    -1.5893 H       
  82 H82            2.2613     3.9885    -2.4457 H       
  83 H83            2.1651     2.2145    -2.5538 H       
@<TRIPOS>BOND
   1    1    2 ar
   2    1    6 ar
   3    1   48 1
   4    2    3 ar
   5    2   49 1
   6    3    4 ar
   7    3   15 1
   8    4    5 ar
   9    4   50 1
  10    5    6 ar
  11    5   51 1
  12    6    7 1
  13    7    8 1
  14    7   11 am
  15    8    9 1
  16    8   45 1
  17    8   52 1
  18    9   10 am
  19    9   12 2
  20   10   11 am
  21   10   53 1
  22   11   13 2
  23   11   14 2
  24   15   16 1
  25   15   17 1
  26   16   19 2
  27   16   54 1
  28   17   18 2
  29   17   28 1
  30   18   19 1
  31   19   20 1
  32   20   21 ar
  33   20   22 ar
  34   21   27 1
  35   21   25 ar
  36   22   23 ar
  37   22   55 1
  38   23   24 ar
  39   23   56 1
  40   24   25 ar
  41   24   26 1
  42   25   57 1
  43   28   29 1
  44   28   58 1
  45   28   59 1
  46   29   30 ar
  47   29   31 ar
  48   30   34 ar
  49   30   60 1
  50   31   32 ar
  51   31   61 1
  52   32   33 ar
  53   32   62 1
  54   33   34 ar
  55   33   35 1
  56   34   63 1
  57   35   36 ar
  58   35   37 ar
  59   36   40 ar
  60   36   64 1
  61   37   38 ar
  62   37   65 1
  63   38   39 ar
  64   38   66 1
  65   39   41 1
  66   39   40 ar
  67   40   67 1
  68   41   42 1
  69   41   44 1
  70   41   43 1
  71   42   68 1
  72   42   69 1
  73   42   70 1
  74   43   71 1
  75   43   72 1
  76   43   73 1
  77   44   74 1
  78   44   75 1
  79   44   76 1
  80   45   46 1
  81   45   77 1
  82   45   78 1
  83   46   47 1
  84   46   79 1
  85   46   80 1
  86   47   81 1
  87   47   82 1
  88   47   83 1

#	End of record

