#	Name: ASD01028120
#	Creating user name:	WinNT
#	Creation time:	15. 06. 2019 18:56

#	Modifying user name:	WinNT
#	Modification time:	15. 06. 2019 18:56

#	Program:	/corina/corina34_cracker 3.40 0067  02.08.2006

@<TRIPOS>MOLECULE
ASD01028120
  82   85    0    0    0
SMALL
NO_CHARGES


@<TRIPOS>ATOM
   1 N1            -0.7353     2.6539     0.7133 N.pl3   
   2 C2            -0.6128     1.3207     1.1231 C.ar    
   3 C3            -1.6384     0.4193     0.8723 C.ar    
   4 C4            -2.8845     0.8763     0.1585 C.3     
   5 C5             0.5395     0.8958     1.7772 C.ar    
   6 C6             0.6557    -0.4293     2.1817 C.ar    
   7 C7            -0.3769    -1.3210     1.9315 C.ar    
   8 C8            -1.5176    -0.8968     1.2763 C.ar    
   9 O9            -2.2268     7.3690    -0.4000 O.3     
  10 C10           -1.2247     6.5591    -0.8346 C.ar    
  11 C11           -1.0966     5.3037    -0.3124 C.ar    
  12 C12           -0.0650     4.4687    -0.7592 C.ar    
  13 C13            0.1117     3.1599    -0.2516 C.ar    
  14 N14            1.1138     2.4319    -0.7279 N.ar    
  15 O15            1.6759     1.5637     2.1353 O.3     
  16 C16            2.3145     0.7327     3.1227 C.3     
  17 O17            1.8648    -0.5949     2.7935 O.3     
  18 C18           -0.3378     7.0201    -1.8180 C.ar    
  19 C19            0.6849     6.2188    -2.2743 C.ar    
  20 C20            0.8386     4.9298    -1.7485 C.ar    
  21 N21            1.8182     4.1097    -2.1593 N.ar    
  22 C22            1.9334     2.9049    -1.6527 C.ar    
  23 O23           -0.4891     8.2709    -2.3261 O.3     
  24 N24           -2.6285     0.9313    -1.2870 N.3     
  25 C25           -2.3872    -0.4120    -1.8304 C.3     
  26 C26           -3.7336     1.5939    -1.9925 C.3     
  27 C27           -3.4675     1.5644    -3.4989 C.3     
  28 C28           -5.0231     0.8727    -1.6960 C.2     
  29 O29           -6.1970     1.5037    -1.8556 O.3     
  30 O30           -5.0003    -0.2735    -1.3146 O.2     
  31 C31           -7.3986     0.7475    -1.5512 C.3     
  32 C32            0.4459     8.6827    -3.3252 C.3     
  33 C33           -3.1013     6.8403     0.5988 C.3     
  34 C34           -4.1568     7.8878     0.9589 C.3     
  35 C35           -5.0931     7.3217     2.0284 C.3     
  36 N36           -6.1037     8.3247     2.3732 N.am    
  37 C37           -7.0415     8.0454     3.3000 C.2     
  38 O38           -7.0487     6.9618     3.8496 O.2     
  39 O39           -7.9702     8.9672     3.6169 O.3     
  40 C40           -8.9491     8.5976     4.6236 C.3     
  41 C41           -8.2329     8.2681     5.9348 C.3     
  42 C42           -9.9143     9.7633     4.8487 C.3     
  43 C43           -9.7319     7.3720     4.1481 C.3     
  44 H44           -1.4181     3.2208     1.1049 H       
  45 H45           -3.6951     0.1753     0.3575 H       
  46 H46           -3.1652     1.8671     0.5157 H       
  47 H47           -0.2874    -2.3505     2.2455 H       
  48 H48           -2.3190    -1.5947     1.0841 H       
  49 H49           -1.7874     4.9566     0.4417 H       
  50 H50            3.3990     0.8018     3.0381 H       
  51 H51            1.9890     1.0099     4.1253 H       
  52 H52            1.3630     6.5813    -3.0326 H       
  53 H53            2.7332     2.2711    -2.0061 H       
  54 H54           -3.2088    -1.0707    -1.5490 H       
  55 H55           -2.3208    -0.3578    -2.9170 H       
  56 H56           -1.4530    -0.8041    -1.4283 H       
  57 H57           -3.8104     2.6283    -1.6573 H       
  58 H58           -3.3907     0.5301    -3.8341 H       
  59 H59           -4.2874     2.0561    -4.0224 H       
  60 H60           -2.5347     2.0861    -3.7134 H       
  61 H61           -7.4482    -0.1306    -2.1951 H       
  62 H62           -7.3750     0.4322    -0.5080 H       
  63 H63           -8.2747     1.3732    -1.7219 H       
  64 H64            1.4545     8.6542    -2.9127 H       
  65 H65            0.3839     8.0097    -4.1803 H       
  66 H66            0.2126     9.6984    -3.6445 H       
  67 H67           -3.5929     5.9463     0.2150 H       
  68 H68           -2.5249     6.5847     1.4879 H       
  69 H69           -3.6652     8.7818     1.3427 H       
  70 H70           -4.7332     8.1434     0.0698 H       
  71 H71           -5.5846     6.4277     1.6446 H       
  72 H72           -4.5167     7.0661     2.9175 H       
  73 H73           -6.0978     9.1898     1.9345 H       
  74 H74           -7.6752     9.1413     6.2736 H       
  75 H75           -8.9677     7.9907     6.6905 H       
  76 H76           -7.5453     7.4377     5.7745 H       
  77 H77          -10.4246     9.9981     3.9145 H       
  78 H78          -10.6491     9.4859     5.6043 H       
  79 H79           -9.3566    10.6365     5.1874 H       
  80 H80           -9.0443     6.5416     3.9877 H       
  81 H81          -10.4667     7.0946     4.9038 H       
  82 H82          -10.2422     7.6068     3.2139 H       
@<TRIPOS>BOND
   1    1    2 1
   2    1   13 1
   3    1   44 1
   4    2    3 ar
   5    2    5 ar
   6    3    4 1
   7    3    8 ar
   8    4   24 1
   9    4   45 1
  10    4   46 1
  11    5    6 ar
  12    5   15 1
  13    6    7 ar
  14    6   17 1
  15    7    8 ar
  16    7   47 1
  17    8   48 1
  18    9   10 1
  19    9   33 1
  20   10   11 ar
  21   10   18 ar
  22   11   12 ar
  23   11   49 1
  24   12   13 ar
  25   12   20 ar
  26   13   14 ar
  27   14   22 ar
  28   15   16 1
  29   16   17 1
  30   16   50 1
  31   16   51 1
  32   18   19 ar
  33   18   23 1
  34   19   20 ar
  35   19   52 1
  36   20   21 ar
  37   21   22 ar
  38   22   53 1
  39   23   32 1
  40   24   25 1
  41   24   26 1
  42   25   54 1
  43   25   55 1
  44   25   56 1
  45   26   27 1
  46   26   28 1
  47   26   57 1
  48   27   58 1
  49   27   59 1
  50   27   60 1
  51   28   29 1
  52   28   30 2
  53   29   31 1
  54   31   61 1
  55   31   62 1
  56   31   63 1
  57   32   64 1
  58   32   65 1
  59   32   66 1
  60   33   34 1
  61   33   67 1
  62   33   68 1
  63   34   35 1
  64   34   69 1
  65   34   70 1
  66   35   36 1
  67   35   71 1
  68   35   72 1
  69   36   37 am
  70   36   73 1
  71   37   38 2
  72   37   39 1
  73   39   40 1
  74   40   41 1
  75   40   42 1
  76   40   43 1
  77   41   74 1
  78   41   75 1
  79   41   76 1
  80   42   77 1
  81   42   78 1
  82   42   79 1
  83   43   80 1
  84   43   81 1
  85   43   82 1

#	End of record

