#	Name: ASD08170058
#	Creating user name:	WinNT
#	Creation time:	15. 06. 2019 21:17

#	Modifying user name:	WinNT
#	Modification time:	15. 06. 2019 21:17

#	Program:	/corina/corina34_cracker 3.40 0067  02.08.2006

@<TRIPOS>MOLECULE
ASD08170058
  61   64    0    0    0
SMALL
NO_CHARGES


@<TRIPOS>ATOM
   1 N1            -0.0150     1.2583     0.0090 N.2     
   2 N2             0.0021    -0.0041     0.0020 N.2     
   3 C3             1.1271     1.8769     0.0014 C.2     
   4 S4             2.3826     0.7116    -0.0169 S.3     
   5 C5             1.1681    -0.5677    -0.0121 C.2     
   6 C6             1.4387    -2.0502    -0.0227 C.3     
   7 C7             1.5165    -2.5442    -1.4687 C.3     
   8 C8             2.1699    -6.2152    -3.4347 C.3     
   9 C9             2.2167    -6.5408    -4.9053 C.2     
  10 N10            3.2694    -6.5184    -5.6596 N.2     
  11 S11            0.8491    -7.0282    -5.9071 S.3     
  12 C12            1.9000    -7.1354    -7.2557 C.2     
  13 N13            3.1017    -6.8250    -6.8728 N.2     
  14 N14            1.5289    -7.4992    -8.5457 N.am    
  15 C15            2.4537    -7.5464    -9.5250 C.2     
  16 O16            3.6096    -7.2716    -9.2812 O.2     
  17 C17            2.0516    -7.9407   -10.9228 C.3     
  18 N18            1.3017     3.2566     0.0067 N.am    
  19 C19            0.2284     4.0717     0.0214 C.2     
  20 C20            0.4176     5.5667     0.0272 C.3     
  21 O21           -0.8897     3.6019     0.0299 O.2     
  22 C22            1.8986    -4.7206    -3.2516 C.3     
  23 C23            3.2810    -7.9151   -11.8361 C.3     
  24 C24           -0.9501     6.2563     0.0441 C.3     
  25 C25            1.4695    -9.3574   -10.9082 C.3     
  26 C26           -0.7480     7.7714     0.1294 C.3     
  27 O27            0.0133     8.0841     1.2976 O.3     
  28 C28            1.3197     7.5051     1.3150 C.3     
  29 C29            1.2006     5.9793     1.2774 C.3     
  30 C30            1.1370    -9.7790   -12.3419 C.3     
  31 O31            2.3167    -9.7032   -13.1449 O.3     
  32 C32            2.8786    -8.3923   -13.2340 C.3     
  33 S33            1.8422    -4.3286    -1.4814 S.3     
  34 H34            2.3843    -2.2506     0.4811 H       
  35 H35            0.6334    -2.5702     0.4961 H       
  36 H36            0.5709    -2.3438    -1.9724 H       
  37 H37            2.3218    -2.0242    -1.9874 H       
  38 H38            1.3741    -6.7896    -2.9605 H       
  39 H39            3.1250    -6.4700    -2.9755 H       
  40 H40            0.6045    -7.7190    -8.7407 H       
  41 H41            1.3040    -7.2417   -11.2980 H       
  42 H42            2.1959     3.6323    -0.0001 H       
  43 H43            0.9669     5.8682    -0.8647 H       
  44 H44            2.6943    -4.1461    -3.7258 H       
  45 H45            0.9434    -4.4658    -3.7108 H       
  46 H46            3.6691    -6.8983   -11.8961 H       
  47 H47            4.0484    -8.5756   -11.4326 H       
  48 H48           -1.4925     6.0120    -0.8693 H       
  49 H49           -1.5192     5.9155     0.9090 H       
  50 H50            2.2003   -10.0472   -10.4859 H       
  51 H51            0.5620    -9.3722   -10.3045 H       
  52 H52           -0.2141     8.1173    -0.7557 H       
  53 H53           -1.7182     8.2650     0.1849 H       
  54 H54            1.8806     7.8475     0.4454 H       
  55 H55            1.8389     7.8069     2.2246 H       
  56 H56            0.6750     5.6329     2.1672 H       
  57 H57            2.1963     5.5369     1.2460 H       
  58 H58            0.7622   -10.8025   -12.3422 H       
  59 H59            0.3764    -9.1130   -12.7495 H       
  60 H60            2.1408    -7.7082   -13.6532 H       
  61 H61            3.7584    -8.4169   -13.8770 H       
@<TRIPOS>BOND
   1    1    2 1
   2    1    3 2
   3    2    5 2
   4    3    4 1
   5    3   18 1
   6    4    5 1
   7    5    6 1
   8    6    7 1
   9    6   34 1
  10    6   35 1
  11    7   33 1
  12    7   36 1
  13    7   37 1
  14    8    9 1
  15    8   22 1
  16    8   38 1
  17    8   39 1
  18    9   10 2
  19    9   11 1
  20   10   13 1
  21   11   12 1
  22   12   13 2
  23   12   14 1
  24   14   15 am
  25   14   40 1
  26   15   16 2
  27   15   17 1
  28   17   23 1
  29   17   25 1
  30   17   41 1
  31   18   19 am
  32   18   42 1
  33   19   20 1
  34   19   21 2
  35   20   24 1
  36   20   29 1
  37   20   43 1
  38   22   33 1
  39   22   44 1
  40   22   45 1
  41   23   32 1
  42   23   46 1
  43   23   47 1
  44   24   26 1
  45   24   48 1
  46   24   49 1
  47   25   30 1
  48   25   50 1
  49   25   51 1
  50   26   27 1
  51   26   52 1
  52   26   53 1
  53   27   28 1
  54   28   29 1
  55   28   54 1
  56   28   55 1
  57   29   56 1
  58   29   57 1
  59   30   31 1
  60   30   58 1
  61   30   59 1
  62   31   32 1
  63   32   60 1
  64   32   61 1

#	End of record

