#	Name: ASD02030143
#	Creating user name:	WinNT
#	Creation time:	15. 06. 2019 20:14

#	Modifying user name:	WinNT
#	Modification time:	15. 06. 2019 20:14

#	Program:	/corina/corina34_cracker 3.40 0067  02.08.2006

@<TRIPOS>MOLECULE
ASD02030143
  55   58    0    0    0
SMALL
NO_CHARGES


@<TRIPOS>ATOM
   1 N1            -0.2122     1.4225    -0.1395 N.am    
   2 C2            -0.0217    -0.0110     0.1222 C.3     
   3 C3            -0.9187    -0.4180     1.2979 C.3     
   4 N4            -2.2777     0.0817     1.0466 N.am    
   5 C5            -2.4682     1.5152     0.7848 C.3     
   6 C6            -1.5720     1.9231    -0.3853 C.3     
   7 C7             0.8405     2.2640    -0.1485 C.2     
   8 C8             2.1830     1.7723     0.2276 C.2     
   9 N9             3.2615     2.5096     0.3829 N.2     
  10 N10            2.5159     0.4926     0.4772 N.2     
  11 C11            3.7902     0.4730     0.7744 C.2     
  12 N12            4.2430     1.7421     0.7113 N.pl3   
  13 O13            0.6862     3.4272    -0.4659 O.2     
  14 C14           -3.3305    -0.7598     1.0556 C.2     
  15 C15           -4.7027    -0.2286     0.9115 C.ar    
  16 O16           -3.1518    -1.9554     1.1822 O.2     
  17 C17           -1.5456     3.4482    -0.5046 C.3     
  18 C18           -2.1096     1.3124    -1.6810 C.3     
  19 C19            5.5586     2.1558     0.9605 C.ar    
  20 C20            5.8962     3.4989     0.8610 C.ar    
  21 C21            7.1936     3.9035     1.1070 C.ar    
  22 C22            8.1561     2.9725     1.4517 C.ar    
  23 C23            7.8231     1.6341     1.5516 C.ar    
  24 C24            6.5260     1.2240     1.3128 C.ar    
  25 C25           -5.6738    -0.9699     0.2370 C.ar    
  26 C26           -6.9530    -0.4692     0.1060 C.ar    
  27 C27           -7.2744     0.7649     0.6415 C.ar    
  28 C28           -6.3158     1.5061     1.3122 C.ar    
  29 C29           -5.0339     1.0139     1.4546 C.ar    
  30 Cl30          -6.7288     3.0540     1.9809 Cl      
  31 C31           -8.0022    -1.2687    -0.6226 C.3     
  32 F32           -8.6705    -2.0977     0.2848 F       
  33 F33           -8.9191    -0.3984    -1.2218 F       
  34 F34           -7.3910    -2.0523    -1.6074 F       
  35 H35           -0.2967    -0.5843    -0.7632 H       
  36 H36            1.0213    -0.2013     0.3749 H       
  37 H37           -0.9384    -1.5044     1.3840 H       
  38 H38           -0.5334     0.0176     2.2198 H       
  39 H39           -3.5113     1.7055     0.5321 H       
  40 H40           -2.1933     2.0884     1.6702 H       
  41 H41            4.3730    -0.4004     1.0275 H       
  42 H42           -1.0497     3.8724     0.3685 H       
  43 H43           -1.0018     3.7328    -1.4054 H       
  44 H44           -2.5665     3.8259    -0.5619 H       
  45 H45           -3.1232     1.6717    -1.8589 H       
  46 H46           -1.4693     1.6044    -2.5134 H       
  47 H47           -2.1193     0.2259    -1.5939 H       
  48 H48            5.1450     4.2265     0.5911 H       
  49 H49            7.4567     4.9481     1.0298 H       
  50 H50            9.1701     3.2912     1.6429 H       
  51 H51            8.5770     0.9092     1.8210 H       
  52 H52            6.2664     0.1786     1.3912 H       
  53 H53           -5.4245    -1.9336    -0.1821 H       
  54 H54           -8.2769     1.1523     0.5359 H       
  55 H55           -4.2869     1.5922     1.9780 H       
@<TRIPOS>BOND
   1    1    2 1
   2    1    7 am
   3    1    6 1
   4    2    3 1
   5    2   35 1
   6    2   36 1
   7    3    4 1
   8    3   37 1
   9    3   38 1
  10    4    5 1
  11    4   14 am
  12    5    6 1
  13    5   39 1
  14    5   40 1
  15    6   17 1
  16    6   18 1
  17    7    8 1
  18    7   13 2
  19    8    9 2
  20    8   10 1
  21    9   12 1
  22   10   11 2
  23   11   12 1
  24   11   41 1
  25   12   19 1
  26   14   15 1
  27   14   16 2
  28   15   25 ar
  29   15   29 ar
  30   17   42 1
  31   17   43 1
  32   17   44 1
  33   18   45 1
  34   18   46 1
  35   18   47 1
  36   19   20 ar
  37   19   24 ar
  38   20   21 ar
  39   20   48 1
  40   21   22 ar
  41   21   49 1
  42   22   23 ar
  43   22   50 1
  44   23   24 ar
  45   23   51 1
  46   24   52 1
  47   25   26 ar
  48   25   53 1
  49   26   27 ar
  50   26   31 1
  51   27   28 ar
  52   27   54 1
  53   28   29 ar
  54   28   30 1
  55   29   55 1
  56   31   32 1
  57   31   33 1
  58   31   34 1

#	End of record

