#	Name: ASD03730255
#	Creating user name:	WinNT
#	Creation time:	15. 06. 2019 20:44

#	Modifying user name:	WinNT
#	Modification time:	15. 06. 2019 20:44

#	Program:	/corina/corina34_cracker 3.40 0067  02.08.2006

@<TRIPOS>MOLECULE
ASD03730255
  61   66    0    0    0
SMALL
NO_CHARGES


@<TRIPOS>ATOM
   1 N1            -0.1685     1.4018     0.3476 N.3     
   2 C2            -0.1379    -0.0796     0.3590 C.3     
   3 O3             1.0748    -0.3937    -0.3491 O.3     
   4 C4             1.9175     0.6652    -0.1703 C.ar    
   5 C5             1.1860     1.7752     0.2500 C.ar    
   6 C6             3.2882     0.7705    -0.3366 C.ar    
   7 C7             3.9400     1.9754    -0.0921 C.ar    
   8 C8             3.1953     3.0782     0.3147 C.ar    
   9 C9             1.8307     2.9776     0.4893 C.ar    
  10 O10            5.2671     2.2808    -0.1762 O.3     
  11 C11            4.1644     4.2200     0.4647 C.3     
  12 C12            5.4215     3.7110    -0.2540 C.3     
  13 N13            3.6338     6.4114     0.8375 N.am    
  14 C14            3.6467     5.4903    -0.1466 C.2     
  15 C15            4.4378     4.5535     1.9010 C.ar    
  16 C16            4.9246     3.8265     2.9786 C.ar    
  17 C17            5.0681     4.4417     4.2218 C.ar    
  18 C18            4.7239     5.7705     4.3716 C.ar    
  19 C19            4.2403     6.4928     3.2998 C.ar    
  20 C20            4.0928     5.8920     2.0508 C.ar    
  21 O21            3.3075     5.6551    -1.2993 O.2     
  22 C22           -0.7715     1.9254     1.5805 C.3     
  23 C23            0.1734     1.6734     2.7573 C.3     
  24 C24           -0.4546     2.2188     4.0414 C.3     
  25 C25            0.4902     1.9668     5.2181 C.3     
  26 C26           -0.1378     2.5121     6.5023 C.3     
  27 C27            5.2907     2.3987     2.8083 C.ar    
  28 C28            6.6310     2.0263     2.7236 C.ar    
  29 C29            6.9670     0.6977     2.5653 C.ar    
  30 C30            5.9741    -0.2660     2.4903 C.ar    
  31 C31            4.6405     0.0998     2.5735 C.ar    
  32 C32            4.2958     1.4259     2.7382 C.ar    
  33 C33            7.7118     3.0734     2.8045 C.3     
  34 F34            6.3074    -1.5660     2.3352 F       
  35 H35           -0.0938    -0.4550     1.3814 H       
  36 H36           -1.0040    -0.4858    -0.1634 H       
  37 H37            3.8562    -0.0898    -0.6585 H       
  38 H38            1.2639     3.8379     0.8131 H       
  39 H39            6.3228     4.0321     0.2682 H       
  40 H40            5.4352     4.0430    -1.2922 H       
  41 H41            3.3401     7.3280     0.7173 H       
  42 H42            5.4464     3.8811     5.0639 H       
  43 H43            4.8337     6.2477     5.3343 H       
  44 H44            3.9737     7.5313     3.4299 H       
  45 H45           -0.9425     2.9967     1.4748 H       
  46 H46           -1.7210     1.4222     1.7628 H       
  47 H47            0.3443     0.6021     2.8630 H       
  48 H48            1.1229     2.1766     2.5750 H       
  49 H49           -0.6256     3.2901     3.9357 H       
  50 H50           -1.4042     1.7155     4.2237 H       
  51 H51            0.6612     0.8955     5.3238 H       
  52 H52            1.4398     2.4700     5.0359 H       
  53 H53           -0.3087     3.5834     6.3966 H       
  54 H54           -1.0873     2.0089     6.6846 H       
  55 H55            0.5354     2.3326     7.3406 H       
  56 H56            8.0054     0.4082     2.4992 H       
  57 H57            3.8698    -0.6543     2.5139 H       
  58 H58            3.2561     1.7097     2.8082 H       
  59 H59            7.9420     3.2779     3.8501 H       
  60 H60            8.6072     2.7112     2.2994 H       
  61 H61            7.3678     3.9886     2.3226 H       
@<TRIPOS>BOND
   1    1    2 1
   2    1    5 1
   3    1   22 1
   4    2    3 1
   5    2   35 1
   6    2   36 1
   7    3    4 1
   8    4    5 ar
   9    4    6 ar
  10    5    9 ar
  11    6    7 ar
  12    6   37 1
  13    7    8 ar
  14    7   10 1
  15    8    9 ar
  16    8   11 1
  17    9   38 1
  18   10   12 1
  19   11   12 1
  20   11   14 1
  21   11   15 1
  22   12   39 1
  23   12   40 1
  24   13   14 am
  25   13   20 1
  26   13   41 1
  27   14   21 2
  28   15   16 ar
  29   15   20 ar
  30   16   17 ar
  31   16   27 1
  32   17   18 ar
  33   17   42 1
  34   18   19 ar
  35   18   43 1
  36   19   20 ar
  37   19   44 1
  38   22   23 1
  39   22   45 1
  40   22   46 1
  41   23   24 1
  42   23   47 1
  43   23   48 1
  44   24   25 1
  45   24   49 1
  46   24   50 1
  47   25   26 1
  48   25   51 1
  49   25   52 1
  50   26   53 1
  51   26   54 1
  52   26   55 1
  53   27   28 ar
  54   27   32 ar
  55   28   29 ar
  56   28   33 1
  57   29   30 ar
  58   29   56 1
  59   30   31 ar
  60   30   34 1
  61   31   32 ar
  62   31   57 1
  63   32   58 1
  64   33   59 1
  65   33   60 1
  66   33   61 1

#	End of record

