#	Name: ASD01870383
#	Creating user name:	WinNT
#	Creation time:	15. 06. 2019 19:39

#	Modifying user name:	WinNT
#	Modification time:	15. 06. 2019 19:39

#	Program:	/corina/corina34_cracker 3.40 0067  02.08.2006

@<TRIPOS>MOLECULE
ASD01870383
  49   52    0    0    0
SMALL
NO_CHARGES


@<TRIPOS>ATOM
   1 N1            -0.0179     1.4666     0.0101 N.am    
   2 C2             0.0021    -0.0041     0.0020 C.3     
   3 C3             1.1293     2.1740     0.0030 C.2     
   4 C4             1.0857     3.6803     0.0115 C.3     
   5 O5             2.1967     1.5983    -0.0103 O.2     
   6 C6             2.4763     4.3407     0.0017 C.3     
   7 N7             1.9076     5.2908    -0.9739 N.am    
   8 C8             0.8907     4.3026    -1.3830 C.3     
   9 S9             2.2664     6.8425    -1.4275 S.o2    
  10 C10            3.4250     6.7442    -2.7514 C.ar    
  11 O11            1.0740     7.3858    -1.9773 O.2     
  12 O12            2.9563     7.4310    -0.3334 O.2     
  13 C13            4.7807     6.7217    -2.4828 C.ar    
  14 C14            2.9777     6.6840    -4.0579 C.ar    
  15 C15            3.8857     6.6064    -5.0978 C.ar    
  16 C16            5.2415     6.5894    -4.8320 C.ar    
  17 C17            5.6907     6.6444    -3.5232 C.ar    
  18 F18            7.0161     6.6283    -3.2621 F       
  19 C19           -0.8911    -0.5093     1.1401 C.3     
  20 N20           -2.2246     0.0945     1.0166 N.3     
  21 C21           -2.1639     1.5549     1.1634 C.3     
  22 C22           -1.3229     2.1448     0.0200 C.3     
  23 C23           -3.1111    -0.4624     1.9335 C.ar    
  24 C24           -4.4382    -0.0378     1.9944 C.ar    
  25 C25           -2.6971    -1.4639     2.8116 C.ar    
  26 C26           -3.6064    -1.9896     3.7049 C.ar    
  27 N27           -4.8531    -1.5568     3.7352 N.ar    
  28 C28           -5.2847    -0.6150     2.9173 C.ar    
  29 H29           -0.3779    -0.3702    -0.9518 H       
  30 H30            1.0222    -0.3573     0.1528 H       
  31 H31            0.4145     4.0817     0.7708 H       
  32 H32            2.7518     4.7987     0.9517 H       
  33 H33            3.2612     3.7060    -0.4094 H       
  34 H34            1.2098     3.6567    -2.2009 H       
  35 H35           -0.0998     4.7302    -1.5387 H       
  36 H36            5.1298     6.7646    -1.4617 H       
  37 H37            1.9181     6.6973    -4.2666 H       
  38 H38            3.5350     6.5587    -6.1181 H       
  39 H39            5.9505     6.5284    -5.6443 H       
  40 H40           -0.9763    -1.5943     1.0813 H       
  41 H41           -0.4526    -0.2298     2.0981 H       
  42 H42           -3.1722     1.9669     1.1215 H       
  43 H43           -1.7077     1.8056     2.1210 H       
  44 H44           -1.1778     3.2123     0.1853 H       
  45 H45           -1.8328     1.9844    -0.9299 H       
  46 H46           -4.7978     0.7326     1.3283 H       
  47 H47           -1.6786    -1.8228     2.7918 H       
  48 H48           -3.2948    -2.7657     4.3883 H       
  49 H49           -6.3128    -0.2892     2.9747 H       
@<TRIPOS>BOND
   1    1    2 1
   2    1    3 am
   3    1   22 1
   4    2   19 1
   5    2   29 1
   6    2   30 1
   7    3    4 1
   8    3    5 2
   9    4    6 1
  10    4    8 1
  11    4   31 1
  12    6    7 1
  13    6   32 1
  14    6   33 1
  15    7    8 1
  16    7    9 am
  17    8   34 1
  18    8   35 1
  19    9   10 1
  20    9   11 2
  21    9   12 2
  22   10   14 ar
  23   10   13 ar
  24   13   17 ar
  25   13   36 1
  26   14   15 ar
  27   14   37 1
  28   15   16 ar
  29   15   38 1
  30   16   17 ar
  31   16   39 1
  32   17   18 1
  33   19   20 1
  34   19   40 1
  35   19   41 1
  36   20   21 1
  37   20   23 1
  38   21   22 1
  39   21   42 1
  40   21   43 1
  41   22   44 1
  42   22   45 1
  43   23   24 ar
  44   23   25 ar
  45   24   28 ar
  46   24   46 1
  47   25   26 ar
  48   25   47 1
  49   26   27 ar
  50   26   48 1
  51   27   28 ar
  52   28   49 1

#	End of record

