#	Name: ASD00842943
#	Creating user name:	WinNT
#	Creation time:	15. 06. 2019 18:45

#	Modifying user name:	WinNT
#	Modification time:	15. 06. 2019 18:45

#	Program:	/corina/corina34_cracker 3.40 0067  02.08.2006

@<TRIPOS>MOLECULE
ASD00842943
 101  106    0    0    0
SMALL
NO_CHARGES


@<TRIPOS>ATOM
   1 N1            -0.0144     1.3151     0.0259 N.ar    
   2 C2             0.0027    -0.0072     0.0114 C.ar    
   3 C3             1.2070    -0.6994    -0.0064 C.ar    
   4 C4             2.3931     0.0133    -0.0087 C.ar    
   5 C5             2.3323     1.4001     0.0068 C.ar    
   6 C6             1.1000     2.0220     0.0241 C.ar    
   7 C7             1.2215    -2.2063    -0.0224 C.3     
   8 C8             0.4763    -2.7313    -1.2310 C.2     
   9 N9             2.5988    -2.7054    -0.0115 N.am    
  10 C10            3.4472    -2.3639    -1.0016 C.2     
  11 N11            4.7405    -2.7378    -0.9396 N.am    
  12 O12            3.0456    -1.7187    -1.9507 O.2     
  13 C13            5.2673    -3.4167     0.2522 C.3     
  14 C14            6.4979    -2.6530     0.7512 C.3     
  15 C15            7.5066    -2.5163    -0.3916 C.3     
  16 C16            6.8768    -1.7215    -1.5378 C.3     
  17 C17            5.6491    -2.4797    -2.0650 C.3     
  18 C18            8.7519    -1.7842     0.1124 C.3     
  19 C19            9.3841    -2.5791     1.2582 C.3     
  20 C20           10.6624    -1.8739     1.7174 C.3     
  21 N21           11.5996    -1.7744     0.5913 N.3     
  22 C22           11.0326    -0.9753    -0.5024 C.3     
  23 C23            9.7654    -1.6537    -1.0279 C.3     
  24 C24           12.8912    -1.2276     1.0281 C.3     
  25 O25            0.7581    -2.5311    -2.3936 O.2     
  26 N26           -0.5549    -3.4611    -0.7746 N.am    
  27 C27            0.4461    -2.7562     1.1532 C.ar    
  28 C28           -0.6036    -3.4976     0.6161 C.ar    
  29 C29            0.6093    -2.6424     2.5105 C.ar    
  30 C30           -0.2887    -3.2781     3.3753 C.ar    
  31 C31           -1.3464    -4.0251     2.8426 C.ar    
  32 C32           -1.4988    -4.1329     1.4768 C.ar    
  33 F33           -2.2187    -4.6426     3.6689 F       
  34 C34           -1.0177    -5.8468    -2.0664 C.ar    
  35 C35            0.1618    -6.0072    -2.7793 C.ar    
  36 C36           -1.6977    -6.9539    -1.5952 C.ar    
  37 C37           -1.2049    -8.2226    -1.8321 C.ar    
  38 C38           -0.0254    -8.3883    -2.5447 C.ar    
  39 C39            0.6582    -7.2796    -3.0187 C.ar    
  40 O40            0.4586    -9.6366    -2.7778 O.3     
  41 O41            0.8298    -4.9183    -3.2428 O.3     
  42 C42           -0.2979   -10.7329    -2.2602 C.3     
  43 C43            2.0371    -5.1582    -3.9686 C.3     
  44 C44            2.6427    -3.8231    -4.4065 C.3     
  45 C45           13.8781    -1.2552    -0.1407 C.3     
  46 C46           12.7006     0.2150     1.5008 C.3     
  47 S47           -1.6454    -4.2300    -1.7555 S.o2    
  48 O48           -2.8276    -4.3998    -0.9855 O.2     
  49 O49           -1.6199    -3.5436    -2.9994 O.2     
  50 O50           -1.1673    -0.6943     0.0143 O.3     
  51 C51           -2.3714     0.0749     0.0333 C.3     
  52 C52           -3.5778    -0.8661     0.0338 C.3     
  53 F53           -3.5501    -1.6604    -1.1174 F       
  54 F54           -3.5298    -1.6852     1.1669 F       
  55 C55           -0.1270    -3.1659     4.7937 C.1     
  56 N56            0.0013    -3.0769     5.9189 N.1     
  57 H57            3.3445    -0.4978    -0.0220 H       
  58 H58            3.2394     1.9863     0.0059 H       
  59 H59            1.0471     3.1006     0.0359 H       
  60 H60            2.9002    -3.2815     0.7083 H       
  61 H61            4.5052    -3.4309     1.0314 H       
  62 H62            5.5499    -4.4378    -0.0039 H       
  63 H63            6.1977    -1.6621     1.0919 H       
  64 H64            6.9550    -3.1989     1.5765 H       
  65 H65            7.7876    -3.5072    -0.7483 H       
  66 H66            6.5730    -0.7394    -1.1756 H       
  67 H67            7.6035    -1.6045    -2.3417 H       
  68 H68            5.9656    -3.4231    -2.5099 H       
  69 H69            5.1388    -1.8734    -2.8134 H       
  70 H70            8.4724    -0.7924     0.4680 H       
  71 H71            8.6825    -2.6389     2.0903 H       
  72 H72            9.6269    -3.5842     0.9133 H       
  73 H73           10.4170    -0.8739     2.0751 H       
  74 H74           11.1227    -2.4450     2.5236 H       
  75 H75           10.7854     0.0205    -0.1343 H       
  76 H76           11.7617    -0.8937    -1.3085 H       
  77 H77           10.0141    -2.6442    -1.4088 H       
  78 H78            9.3362    -1.0522    -1.8292 H       
  79 H79           13.2821    -1.8300     1.8480 H       
  80 H80            1.4289    -2.0639     2.9107 H       
  81 H81           -2.3163    -4.7105     1.0712 H       
  82 H82           -2.6156    -6.8269    -1.0405 H       
  83 H83           -1.7377    -9.0861    -1.4622 H       
  84 H84            1.5760    -7.4065    -3.5737 H       
  85 H85           -0.3706   -10.6446    -1.1763 H       
  86 H86           -1.2980   -10.7209    -2.6936 H       
  87 H87            0.1977   -11.6693    -2.5161 H       
  88 H88            2.7455    -5.6868    -3.3308 H       
  89 H89            1.8181    -5.7637    -4.8481 H       
  90 H90            1.9343    -3.2946    -5.0443 H       
  91 H91            2.8617    -3.2176    -3.5270 H       
  92 H92            3.5637    -4.0061    -4.9601 H       
  93 H93           14.0138    -2.2830    -0.4775 H       
  94 H94           13.4871    -0.6528    -0.9607 H       
  95 H95           14.8365    -0.8495     0.1833 H       
  96 H96           11.9975     0.2346     2.3334 H       
  97 H97           13.6590     0.6207     1.8248 H       
  98 H98           12.3097     0.8174     0.6808 H       
  99 H99           -2.3930     0.6939     0.9303 H       
 100 H100          -2.4088     0.7132    -0.8495 H       
 101 H101          -4.4963    -0.2793     0.0484 H       
@<TRIPOS>BOND
   1    1    2 ar
   2    1    6 ar
   3    2    3 ar
   4    2   50 1
   5    3    4 ar
   6    3    7 1
   7    4    5 ar
   8    4   57 1
   9    5    6 ar
  10    5   58 1
  11    6   59 1
  12    7    8 1
  13    7    9 1
  14    7   27 1
  15    8   25 2
  16    8   26 am
  17    9   10 am
  18    9   60 1
  19   10   11 am
  20   10   12 2
  21   11   13 1
  22   11   17 1
  23   13   14 1
  24   13   61 1
  25   13   62 1
  26   14   15 1
  27   14   63 1
  28   14   64 1
  29   15   16 1
  30   15   18 1
  31   15   65 1
  32   16   17 1
  33   16   66 1
  34   16   67 1
  35   17   68 1
  36   17   69 1
  37   18   19 1
  38   18   23 1
  39   18   70 1
  40   19   20 1
  41   19   71 1
  42   19   72 1
  43   20   21 1
  44   20   73 1
  45   20   74 1
  46   21   22 1
  47   21   24 1
  48   22   23 1
  49   22   75 1
  50   22   76 1
  51   23   77 1
  52   23   78 1
  53   24   45 1
  54   24   46 1
  55   24   79 1
  56   26   47 am
  57   26   28 1
  58   27   28 ar
  59   27   29 ar
  60   28   32 ar
  61   29   30 ar
  62   29   80 1
  63   30   31 ar
  64   30   55 1
  65   31   32 ar
  66   31   33 1
  67   32   81 1
  68   34   35 ar
  69   34   36 ar
  70   34   47 1
  71   35   41 1
  72   35   39 ar
  73   36   37 ar
  74   36   82 1
  75   37   38 ar
  76   37   83 1
  77   38   39 ar
  78   38   40 1
  79   39   84 1
  80   40   42 1
  81   41   43 1
  82   42   85 1
  83   42   86 1
  84   42   87 1
  85   43   44 1
  86   43   88 1
  87   43   89 1
  88   44   90 1
  89   44   91 1
  90   44   92 1
  91   45   93 1
  92   45   94 1
  93   45   95 1
  94   46   96 1
  95   46   97 1
  96   46   98 1
  97   47   48 2
  98   47   49 2
  99   50   51 1
 100   51   52 1
 101   51   99 1
 102   51  100 1
 103   52   53 1
 104   52   54 1
 105   52  101 1
 106   55   56 3

#	End of record

