#	Name: ASD09080028
#	Creating user name:	WinNT
#	Creation time:	15. 06. 2019 21:20

#	Modifying user name:	WinNT
#	Modification time:	15. 06. 2019 21:20

#	Program:	/corina/corina34_cracker 3.40 0067  02.08.2006

@<TRIPOS>MOLECULE
ASD09080028
  41   42    0    0    0
SMALL
NO_CHARGES


@<TRIPOS>ATOM
   1 C1            -0.0167     1.3772     0.0096 C.ar    
   2 C2             0.0021    -0.0041     0.0020 C.ar    
   3 C3             1.2087    -0.6820    -0.0127 C.ar    
   4 C4             2.4019     0.0195    -0.0203 C.ar    
   5 C5             2.3936     1.4009    -0.0128 C.ar    
   6 C6             1.1817     2.0879     0.0020 C.ar    
   7 Cl7           -1.4902    -0.8910     0.0115 Cl      
   8 Cl8            3.9112    -0.8380    -0.0387 Cl      
   9 C9             1.1672     3.5718     0.0096 C.ar    
  10 C10           -0.0448     4.2591     0.0244 C.ar    
  11 C11            2.3655     4.2827     0.0078 C.ar    
  12 C12           -0.0524     5.6392     0.0319 C.ar    
  13 C13            1.1401     6.3400     0.0248 C.ar    
  14 C14            2.3461     5.6628     0.0154 C.ar    
  15 C15            1.1254     7.8469     0.0325 C.3     
  16 C16            1.1333     8.3496     1.4776 C.3     
  17 N17            2.3947     7.9710     2.1194 N.am    
  18 C18            2.4557     7.8379     3.4592 C.2     
  19 C19            3.7532     7.4485     4.1194 C.3     
  20 O20            1.4664     8.0315     4.1335 O.2     
  21 O21            3.5640     7.3727     5.5338 O.3     
  22 C22            4.7404     7.0086     6.2588 C.3     
  23 C23            0.9948     9.8502     1.4882 C.2     
  24 O24            1.8604    10.5330     1.9810 O.2     
  25 H25           -0.9587     1.9054     0.0170 H       
  26 H26            1.2193    -1.7620    -0.0179 H       
  27 H27            3.3252     1.9474    -0.0180 H       
  28 H28           -0.9765     3.7129     0.0296 H       
  29 H29            3.3077     3.7549     0.0009 H       
  30 H30           -0.9912     6.1730     0.0430 H       
  31 H31            3.2743     6.2149     0.0099 H       
  32 H32            2.0071     8.2216    -0.4873 H       
  33 H33            0.2273     8.2041    -0.4715 H       
  34 H34            0.3007     7.9040     2.0218 H       
  35 H35            3.1859     7.8162     1.5801 H       
  36 H36            4.0751     6.4774     3.7433 H       
  37 H37            4.5141     8.1957     3.8941 H       
  38 H38            4.5139     6.9730     7.3244 H       
  39 H39            5.0827     6.0283     5.9271 H       
  40 H40            5.5217     7.7467     6.0779 H       
  41 H41            0.1215    10.3150     1.0551 H       
@<TRIPOS>BOND
   1    1    2 ar
   2    1    6 ar
   3    1   25 1
   4    2    3 ar
   5    2    7 1
   6    3    4 ar
   7    3   26 1
   8    4    5 ar
   9    4    8 1
  10    5    6 ar
  11    5   27 1
  12    6    9 1
  13    9   10 ar
  14    9   11 ar
  15   10   12 ar
  16   10   28 1
  17   11   14 ar
  18   11   29 1
  19   12   13 ar
  20   12   30 1
  21   13   14 ar
  22   13   15 1
  23   14   31 1
  24   15   16 1
  25   15   32 1
  26   15   33 1
  27   16   17 1
  28   16   23 1
  29   16   34 1
  30   17   18 am
  31   17   35 1
  32   18   19 1
  33   18   20 2
  34   19   21 1
  35   19   36 1
  36   19   37 1
  37   21   22 1
  38   22   38 1
  39   22   39 1
  40   22   40 1
  41   23   24 2
  42   23   41 1

#	End of record

