#	Name: ASD00731049
#	Creating user name:	WinNT
#	Creation time:	15. 06. 2019 18:37

#	Modifying user name:	WinNT
#	Modification time:	15. 06. 2019 18:37

#	Program:	/corina/corina34_cracker 3.40 0067  02.08.2006

@<TRIPOS>MOLECULE
ASD00731049
 253  255    0    0    0
SMALL
NO_CHARGES


@<TRIPOS>ATOM
   1 C1            -1.2465     0.1142    -0.3435 C.2     
   2 O2            -1.6369    -1.0080    -0.5868 O.2     
   3 N3             0.9856    -0.8096    -0.5746 N.am    
   4 C4             0.2248     0.4322    -0.4148 C.3     
   5 C5             0.4908     1.3505    -1.6093 C.3     
   6 C6             1.9820     1.6875    -1.6713 C.3     
   7 O7             0.1014     0.6891    -2.8147 O.3     
   8 C8            -4.2517     1.9030    -0.8537 C.2     
   9 O9            -3.6019     2.8204    -1.3089 O.2     
  10 N10           -2.1292     1.0782    -0.0149 N.am    
  11 C11           -3.5674     0.8070    -0.0781 C.3     
  12 C12           -4.1390     0.7526     1.3401 C.3     
  13 C13           -3.5138    -0.3954     2.0899 C.2     
  14 O14           -2.6651    -1.0725     1.5598 O.2     
  15 O15           -3.8999    -0.6658     3.3467 O.3     
  16 C16           -7.6938     3.0200    -1.3705 C.2     
  17 O17           -8.1242     2.2686    -0.5213 O.2     
  18 N18           -5.5857     1.8638    -1.0416 N.am    
  19 C19           -6.2509     2.9293    -1.7956 C.3     
  20 C20           -6.1787     2.6169    -3.2917 C.3     
  21 C21           -4.7190     2.6478    -3.7492 C.3     
  22 C22           -4.6468     2.3354    -5.2452 C.3     
  23 N23           -3.2491     2.3650    -5.6834 N.pl3   
  24 C24           -2.9353     2.1126    -6.9979 C.2     
  25 N25           -1.6918     2.1389    -7.3877 N.2     
  26 N26           -3.9331     1.8323    -7.9012 N.pl3   
  27 C27          -10.7185     4.7470    -2.5141 C.2     
  28 O28          -10.1889     5.3888    -3.3964 O.2     
  29 N29           -8.5061     3.9361    -1.9340 N.am    
  30 C30           -9.8773     4.0989    -1.4448 C.3     
  31 C31           -9.8716     4.9819    -0.1953 C.3     
  32 C32          -11.2838     5.0469     0.3897 C.3     
  33 C33          -11.6840     3.6654     0.9112 C.3     
  34 C34          -11.3132     6.0547     1.5405 C.3     
  35 C35          -14.2617     5.4351    -3.0930 C.2     
  36 O36          -14.5504     5.2184    -1.9352 O.2     
  37 N37          -12.0595     4.6134    -2.4899 N.am    
  38 C38          -12.8685     5.1456    -3.5892 C.3     
  39 C39          -12.9333     4.1163    -4.7194 C.3     
  40 C40          -11.5349     3.9151    -5.3066 C.3     
  41 C41          -11.5996     2.8858    -6.4368 C.3     
  42 N42          -10.2606     2.6931    -6.9991 N.pl3   
  43 C43          -10.0705     1.8085    -8.0342 C.2     
  44 N44          -11.0816     1.1413    -8.5154 N.2     
  45 N45           -8.8139     1.6277    -8.5619 N.pl3   
  46 C46          -17.5071     6.1640    -4.6094 C.2     
  47 O47          -17.1038     5.9159    -5.7259 O.2     
  48 N48          -15.1870     5.9350    -3.9360 N.am    
  49 C49          -16.5413     6.2165    -3.4537 C.3     
  50 C50          -16.5783     7.6091    -2.8210 C.3     
  51 C51          -15.6927     7.6261    -1.5735 C.3     
  52 C52          -15.7296     9.0187    -0.9409 C.3     
  53 C53          -14.8440     9.0358     0.3066 C.3     
  54 N54          -14.8794    10.3728     0.9141 N.3     
  55 C55          -20.9643     7.1885    -5.2109 C.2     
  56 O56          -21.0330     7.7766    -4.1525 O.2     
  57 N57          -18.8191     6.3928    -4.4021 N.am    
  58 C58          -19.7580     6.3418    -5.5255 C.3     
  59 C59          -20.1971     4.8947    -5.7578 C.3     
  60 C60          -24.3222     7.6179    -6.5904 C.2     
  61 O61          -24.1978     6.6694    -7.3358 O.2     
  62 N62          -21.9668     7.2921    -6.1058 N.am    
  63 C63          -23.1394     8.1152    -5.7999 C.3     
  64 C64          -22.8522     9.5709    -6.1732 C.3     
  65 C65          -21.7497    10.1062    -5.2963 C.2     
  66 C66          -21.9012    10.8006    -4.1575 C.2     
  67 N67          -20.6758    11.1176    -3.6377 N.pl3   
  68 C68          -19.6804    10.6223    -4.4500 C.ar    
  69 C69          -18.2912    10.6569    -4.3921 C.ar    
  70 C70          -17.5497    10.0517    -5.3832 C.ar    
  71 C71          -18.1749     9.4065    -6.4411 C.ar    
  72 C72          -19.5386     9.3609    -6.5181 C.ar    
  73 C73          -20.3094     9.9619    -5.5215 C.ar    
  74 C74          -27.6544     8.8675    -7.4260 C.2     
  75 O75          -27.4200     9.9641    -6.9640 O.2     
  76 N76          -25.5182     8.2273    -6.4689 N.am    
  77 C77          -26.6680     7.7439    -7.2374 C.3     
  78 C78          -27.3406     6.5963    -6.4813 C.3     
  79 C79          -26.3804     5.4080    -6.3988 C.3     
  80 S80          -27.1778     4.0474    -5.5024 S.3     
  81 C81          -25.9060     2.7539    -5.5084 C.3     
  82 C82          -31.1340     9.1743    -8.5035 C.2     
  83 O83          -31.2990     7.9728    -8.5016 O.2     
  84 N84          -28.7970     8.6537    -8.1081 N.am    
  85 C85          -29.7559     9.7460    -8.2914 C.3     
  86 C86          -29.3551    10.5770    -9.5120 C.3     
  87 C87          -28.0315    11.2482    -9.2501 C.ar    
  88 C88          -26.8534    10.6086    -9.5875 C.ar    
  89 C89          -25.6393    11.2242    -9.3472 C.ar    
  90 C90          -25.6033    12.4798    -8.7699 C.ar    
  91 C91          -26.7814    13.1198    -8.4333 C.ar    
  92 C92          -27.9957    12.5059    -8.6776 C.ar    
  93 C93          -33.7076     9.1038   -10.3581 C.2     
  94 O94          -32.8120     9.3059   -11.1436 O.2     
  95 N95          -32.1832     9.9983    -8.6952 N.am    
  96 C96          -33.5230     9.4425    -8.9013 C.3     
  97 C97          -34.5728    10.4727    -8.4801 C.3     
  98 C98          -35.9667     9.8493    -8.5773 C.3     
  99 C99          -37.0051    10.8356    -8.0387 C.3     
 100 C100         -34.4928    11.6895    -9.4043 C.3     
 101 O101         -34.8670     8.5776   -10.7831 O.3     
 102 C102           2.2698    -0.8699    -0.1701 C.2     
 103 O103           2.7956     0.1039     0.3262 O.2     
 104 C104          18.5505    -9.8311     2.2436 C.3     
 105 C105          17.7559    -8.5343     2.4105 C.3     
 106 C106          16.3364    -8.7334     1.8753 C.3     
 107 C107          15.5419    -7.4366     2.0422 C.3     
 108 C108          14.1224    -7.6357     1.5070 C.3     
 109 C109          13.3279    -6.3389     1.6739 C.3     
 110 C110          11.9084    -6.5380     1.1387 C.3     
 111 C111          11.1139    -5.2412     1.3056 C.3     
 112 C112           9.6944    -5.4403     0.7704 C.3     
 113 C113           8.8999    -4.1435     0.9373 C.3     
 114 C114           7.4804    -4.3426     0.4022 C.3     
 115 C115           6.6859    -3.0458     0.5690 C.3     
 116 C116           5.2664    -3.2449     0.0339 C.3     
 117 C117           4.4719    -1.9481     0.2007 C.3     
 118 C118           3.0524    -2.1472    -0.3344 C.3     
 119 H119           0.5651    -1.5884    -0.9715 H       
 120 H120           0.5335     0.9318     0.5034 H       
 121 H121          -0.0849     2.2692    -1.4966 H       
 122 H122           2.5502     0.7830    -1.8882 H       
 123 H123           2.1559     2.4229    -2.4569 H       
 124 H124           2.3022     2.0968    -0.7132 H       
 125 H125          -0.8339     0.4453    -2.8450 H       
 126 H126          -1.8121     1.9516     0.2635 H       
 127 H127          -3.7355    -0.1488    -0.5745 H       
 128 H128          -3.9188     1.6868     1.8567 H       
 129 H129          -5.2185     0.6100     1.2915 H       
 130 H130          -3.4704    -1.4119     3.7871 H       
 131 H131          -6.1054     1.1301    -0.6776 H       
 132 H132          -5.7536     3.8789    -1.5983 H       
 133 H133          -6.5966     1.6273    -3.4768 H       
 134 H134          -6.7492     3.3618    -3.8463 H       
 135 H135          -4.3011     3.6373    -3.5641 H       
 136 H136          -4.1485     1.9028    -3.1945 H       
 137 H137          -5.0647     1.3459    -5.4304 H       
 138 H138          -5.2173     3.0804    -5.7999 H       
 139 H139          -2.5452     2.5627    -5.0460 H       
 140 H140          -1.4704     1.9608    -8.3151 H       
 141 H141          -4.8585     1.8127    -7.6111 H       
 142 H142          -3.7117     1.6542    -8.8286 H       
 143 H143          -8.1827     4.4876    -2.6635 H       
 144 H144         -10.2933     3.1222    -1.1975 H       
 145 H145          -9.1910     4.5603     0.5444 H       
 146 H146          -9.5420     5.9861    -0.4616 H       
 147 H147         -11.9840     5.3596    -0.3850 H       
 148 H148         -11.0293     3.3849     1.7364 H       
 149 H149         -12.7163     3.6936     1.2600 H       
 150 H150         -11.5914     2.9333     0.1090 H       
 151 H151         -11.0281     7.0390     1.1690 H       
 152 H152         -12.3193     6.1011     1.9573 H       
 153 H153         -10.6131     5.7420     2.3152 H       
 154 H154         -12.4888     4.1650    -1.7446 H       
 155 H155         -12.4167     6.0653    -3.9607 H       
 156 H156         -13.3025     3.1687    -4.3271 H       
 157 H157         -13.6065     4.4740    -5.4984 H       
 158 H158         -11.1657     4.8627    -5.6988 H       
 159 H159         -10.8617     3.5573    -4.5275 H       
 160 H160         -11.9688     1.9382    -6.0446 H       
 161 H161         -12.2728     3.2435    -7.2159 H       
 162 H162          -9.5082     3.1896    -6.6411 H       
 163 H163         -10.9475     0.5172    -9.2457 H       
 164 H164          -8.0615     2.1242    -8.2039 H       
 165 H165          -8.6798     1.0036    -9.2923 H       
 166 H166         -14.9561     6.1083    -4.8620 H       
 167 H167         -16.8242     5.4718    -2.7097 H       
 168 H168         -16.2107     8.3436    -3.5376 H       
 169 H169         -17.6031     7.8545    -2.5425 H       
 170 H170         -16.0602     6.8916    -0.8569 H       
 171 H171         -14.6678     7.3807    -1.8521 H       
 172 H172         -15.3620     9.7532    -1.6575 H       
 173 H173         -16.7544     9.2642    -0.6623 H       
 174 H174         -15.2116     8.3013     1.0232 H       
 175 H175         -13.8191     8.7903     0.0281 H       
 176 H176         -14.3018    10.4099     1.7405 H       
 177 H177         -14.6044    11.0797     0.2487 H       
 178 H178         -19.1416     6.5912    -3.5091 H       
 179 H179         -19.2711     6.7223    -6.4235 H       
 180 H180         -20.8957     4.8567    -6.5937 H       
 181 H181         -19.3246     4.2823    -5.9854 H       
 182 H182         -20.6840     4.5141    -4.8599 H       
 183 H183         -21.9118     6.8217    -6.9523 H       
 184 H184         -23.3611     8.0503    -4.7347 H       
 185 H185         -22.5441     9.6242    -7.2174 H       
 186 H186         -23.7530    10.1675    -6.0292 H       
 187 H187         -22.8499    11.0696    -3.7170 H       
 188 H188         -20.5300    11.6169    -2.8190 H       
 189 H189         -17.7954    11.1568    -3.5731 H       
 190 H190         -16.4710    10.0799    -5.3366 H       
 191 H191         -17.5789     8.9371    -7.2098 H       
 192 H192         -20.0181     8.8574    -7.3445 H       
 193 H193         -25.6177     8.9860    -5.8727 H       
 194 H194         -26.3308     7.3890    -8.2113 H       
 195 H195         -27.5981     6.9259    -5.4748 H       
 196 H196         -28.2463     6.2957    -7.0081 H       
 197 H197         -26.1229     5.0783    -7.4053 H       
 198 H198         -25.4747     5.7086    -5.8720 H       
 199 H199         -26.2813     1.8730    -4.9876 H       
 200 H200         -25.6603     2.4907    -6.5372 H       
 201 H201         -25.0122     3.1210    -5.0039 H       
 202 H202         -28.9844     7.7766    -8.4775 H       
 203 H203         -29.7581    10.3802    -7.4049 H       
 204 H204         -29.2665     9.9258   -10.3816 H       
 205 H205         -30.1155    11.3346    -9.7013 H       
 206 H206         -26.8816     9.6277   -10.0385 H       
 207 H207         -24.7189    10.7242    -9.6102 H       
 208 H208         -24.6547    12.9605    -8.5816 H       
 209 H209         -26.7533    14.1005    -7.9820 H       
 210 H210         -28.9162    13.0075    -8.4180 H       
 211 H211         -32.0513    10.9592    -8.6967 H       
 212 H212         -33.6382     8.5400    -8.3010 H       
 213 H213         -34.3847    10.7839    -7.4526 H       
 214 H214         -36.1901     9.6193    -9.6190 H       
 215 H215         -35.9966     8.9326    -7.9883 H       
 216 H216         -36.7817    11.0656    -6.9970 H       
 217 H217         -36.9752    11.7523    -8.6277 H       
 218 H218         -37.9981    10.3915    -8.1079 H       
 219 H219         -34.6808    11.3783   -10.4318 H       
 220 H220         -35.2407    12.4234    -9.1042 H       
 221 H221         -33.4998    12.1335    -9.3351 H       
 222 H222         -34.9385     8.3769   -11.7263 H       
 223 H223          19.5617    -9.6892     2.6249 H       
 224 H224          18.0614   -10.6309     2.7996 H       
 225 H225          18.5943   -10.0970     1.1874 H       
 226 H226          17.7121    -8.2684     3.4666 H       
 227 H227          18.2450    -7.7344     1.8544 H       
 228 H228          16.3803    -8.9993     0.8192 H       
 229 H229          15.8474    -9.5332     2.4313 H       
 230 H230          15.4980    -7.1707     3.0983 H       
 231 H231          16.0310    -6.6367     1.4861 H       
 232 H232          14.1663    -7.9016     0.4509 H       
 233 H233          13.6334    -8.4355     2.0631 H       
 234 H234          13.2840    -6.0730     2.7300 H       
 235 H235          13.8170    -5.5390     1.1179 H       
 236 H236          11.9523    -6.8039     0.0826 H       
 237 H237          11.4194    -7.3378     1.6948 H       
 238 H238          11.0700    -4.9753     2.3618 H       
 239 H239          11.6029    -4.4413     0.7496 H       
 240 H240           9.7383    -5.7062    -0.2857 H       
 241 H241           9.2054    -6.2401     1.3265 H       
 242 H242           8.8560    -3.8776     1.9935 H       
 243 H243           9.3889    -3.3436     0.3813 H       
 244 H244           7.5243    -4.6085    -0.6540 H       
 245 H245           6.9914    -5.1424     0.9582 H       
 246 H246           6.6420    -2.7799     1.6252 H       
 247 H247           7.1749    -2.2459     0.0130 H       
 248 H248           5.3103    -3.5108    -1.0223 H       
 249 H249           4.7774    -4.0447     0.5899 H       
 250 H250           4.4280    -1.6822     1.2569 H       
 251 H251           4.9609    -1.1482    -0.3553 H       
 252 H252           2.5634    -2.9470     0.2216 H       
 253 H253           3.0963    -2.4131    -1.3906 H       
@<TRIPOS>BOND
   1    1    2 2
   2    1    4 1
   3    1   10 am
   4    3  102 am
   5    3    4 1
   6    3  119 1
   7    4    5 1
   8    4  120 1
   9    5    6 1
  10    5    7 1
  11    5  121 1
  12    6  122 1
  13    6  123 1
  14    6  124 1
  15    7  125 1
  16    8    9 2
  17    8   11 1
  18    8   18 am
  19   10   11 1
  20   10  126 1
  21   11   12 1
  22   11  127 1
  23   12   13 1
  24   12  128 1
  25   12  129 1
  26   13   14 2
  27   13   15 1
  28   15  130 1
  29   16   17 2
  30   16   19 1
  31   16   29 am
  32   18   19 1
  33   18  131 1
  34   19   20 1
  35   19  132 1
  36   20   21 1
  37   20  133 1
  38   20  134 1
  39   21   22 1
  40   21  135 1
  41   21  136 1
  42   22   23 1
  43   22  137 1
  44   22  138 1
  45   23   24 1
  46   23  139 1
  47   24   25 2
  48   24   26 1
  49   25  140 1
  50   26  141 1
  51   26  142 1
  52   27   28 2
  53   27   30 1
  54   27   37 am
  55   29   30 1
  56   29  143 1
  57   30   31 1
  58   30  144 1
  59   31   32 1
  60   31  145 1
  61   31  146 1
  62   32   33 1
  63   32   34 1
  64   32  147 1
  65   33  148 1
  66   33  149 1
  67   33  150 1
  68   34  151 1
  69   34  152 1
  70   34  153 1
  71   35   36 2
  72   35   38 1
  73   35   48 am
  74   37   38 1
  75   37  154 1
  76   38   39 1
  77   38  155 1
  78   39   40 1
  79   39  156 1
  80   39  157 1
  81   40   41 1
  82   40  158 1
  83   40  159 1
  84   41   42 1
  85   41  160 1
  86   41  161 1
  87   42   43 1
  88   42  162 1
  89   43   44 2
  90   43   45 1
  91   44  163 1
  92   45  164 1
  93   45  165 1
  94   46   47 2
  95   46   49 1
  96   46   57 am
  97   48   49 1
  98   48  166 1
  99   49   50 1
 100   49  167 1
 101   50   51 1
 102   50  168 1
 103   50  169 1
 104   51   52 1
 105   51  170 1
 106   51  171 1
 107   52   53 1
 108   52  172 1
 109   52  173 1
 110   53   54 1
 111   53  174 1
 112   53  175 1
 113   54  176 1
 114   54  177 1
 115   55   56 2
 116   55   58 1
 117   55   62 am
 118   57   58 1
 119   57  178 1
 120   58   59 1
 121   58  179 1
 122   59  180 1
 123   59  181 1
 124   59  182 1
 125   60   61 2
 126   60   63 1
 127   60   76 am
 128   62   63 1
 129   62  183 1
 130   63   64 1
 131   63  184 1
 132   64   65 1
 133   64  185 1
 134   64  186 1
 135   65   66 2
 136   65   73 1
 137   66   67 1
 138   66  187 1
 139   67   68 1
 140   67  188 1
 141   68   69 ar
 142   68   73 ar
 143   69   70 ar
 144   69  189 1
 145   70   71 ar
 146   70  190 1
 147   71   72 ar
 148   71  191 1
 149   72   73 ar
 150   72  192 1
 151   74   75 2
 152   74   77 1
 153   74   84 am
 154   76   77 1
 155   76  193 1
 156   77   78 1
 157   77  194 1
 158   78   79 1
 159   78  195 1
 160   78  196 1
 161   79   80 1
 162   79  197 1
 163   79  198 1
 164   80   81 1
 165   81  199 1
 166   81  200 1
 167   81  201 1
 168   82   83 2
 169   82   85 1
 170   82   95 am
 171   84   85 1
 172   84  202 1
 173   85   86 1
 174   85  203 1
 175   86   87 1
 176   86  204 1
 177   86  205 1
 178   87   88 ar
 179   87   92 ar
 180   88   89 ar
 181   88  206 1
 182   89   90 ar
 183   89  207 1
 184   90   91 ar
 185   90  208 1
 186   91   92 ar
 187   91  209 1
 188   92  210 1
 189   93   94 2
 190   93   96 1
 191   93  101 1
 192   95   96 1
 193   95  211 1
 194   96   97 1
 195   96  212 1
 196   97   98 1
 197   97  100 1
 198   97  213 1
 199   98   99 1
 200   98  214 1
 201   98  215 1
 202   99  216 1
 203   99  217 1
 204   99  218 1
 205  100  219 1
 206  100  220 1
 207  100  221 1
 208  101  222 1
 209  102  103 2
 210  102  118 1
 211  104  105 1
 212  104  223 1
 213  104  224 1
 214  104  225 1
 215  105  106 1
 216  105  226 1
 217  105  227 1
 218  106  107 1
 219  106  228 1
 220  106  229 1
 221  107  108 1
 222  107  230 1
 223  107  231 1
 224  108  109 1
 225  108  232 1
 226  108  233 1
 227  109  110 1
 228  109  234 1
 229  109  235 1
 230  110  111 1
 231  110  236 1
 232  110  237 1
 233  111  112 1
 234  111  238 1
 235  111  239 1
 236  112  113 1
 237  112  240 1
 238  112  241 1
 239  113  114 1
 240  113  242 1
 241  113  243 1
 242  114  115 1
 243  114  244 1
 244  114  245 1
 245  115  116 1
 246  115  246 1
 247  115  247 1
 248  116  117 1
 249  116  248 1
 250  116  249 1
 251  117  118 1
 252  117  250 1
 253  117  251 1
 254  118  252 1
 255  118  253 1

#	End of record

