#	Name: ASD06710060
#	Creating user name:	WinNT
#	Creation time:	15. 06. 2019 21:08

#	Modifying user name:	WinNT
#	Modification time:	15. 06. 2019 21:08

#	Program:	/corina/corina34_cracker 3.40 0067  02.08.2006

@<TRIPOS>MOLECULE
ASD06710060
  18   18    0    0    0
SMALL
NO_CHARGES


@<TRIPOS>ATOM
   1 C1             0.0021    -0.0041     0.0020 C.1     
   2 C2            -0.0173     1.4278     0.0099 C.ar    
   3 C3             1.1970     2.1290     0.0021 C.ar    
   4 C4             1.2151     3.4875     0.0087 C.ar    
   5 C5            -0.0552     4.2190     0.0243 C.ar    
   6 C6            -1.3048     3.4534     0.0321 C.ar    
   7 C7            -1.2499     2.0955     0.0194 C.ar    
   8 N8             0.0175    -1.1399    -0.0042 N.1     
   9 N9            -0.0731     5.5406     0.0316 N.2     
  10 C10           -1.1639     6.1508     0.0448 C.1     
  11 S11           -2.5197     6.9091     0.0613 S.2     
  12 C12            2.4970     1.3669    -0.0134 C.3     
  13 F13            3.5663     2.2689    -0.0190 F       
  14 F14            2.5762     0.5567     1.1244 F       
  15 F15            2.5553     0.5675    -1.1601 F       
  16 H16            2.1536     4.0218     0.0030 H       
  17 H17           -2.2575     3.9619     0.0439 H       
  18 H18           -2.1665     1.5242     0.0211 H       
@<TRIPOS>BOND
   1    1    2 1
   2    1    8 3
   3    2    3 ar
   4    2    7 ar
   5    3    4 ar
   6    3   12 1
   7    4    5 ar
   8    4   16 1
   9    5    6 ar
  10    5    9 1
  11    6    7 ar
  12    6   17 1
  13    7   18 1
  14    9   10 2
  15   10   11 2
  16   12   13 1
  17   12   14 1
  18   12   15 1

#	End of record

