#	Name: ASD07930835
#	Creating user name:	WinNT
#	Creation time:	15. 06. 2019 21:13

#	Modifying user name:	WinNT
#	Modification time:	15. 06. 2019 21:13

#	Program:	/corina/corina34_cracker 3.40 0067  02.08.2006

@<TRIPOS>MOLECULE
ASD07930835
  32   33    0    0    0
SMALL
NO_CHARGES


@<TRIPOS>ATOM
   1 C1            -0.0173     1.4248     0.0099 C.3     
   2 O2             0.0021    -0.0041     0.0020 O.3     
   3 O3             2.4602     2.8265     1.9767 O.3     
   4 C4             2.1363     1.5929     1.3136 C.3     
   5 C5             1.4181     1.9544    -0.0010 C.3     
   6 C6             1.4244     3.5023    -0.0236 C.3     
   7 C7             2.5812     3.8366     0.9522 C.3     
   8 C8             3.4174     0.8138     1.0093 C.3     
   9 C9             1.7221     4.0187    -1.4077 C.ar    
  10 C10            2.9173     3.6915    -2.0264 C.ar    
  11 C11            3.1903     4.1655    -3.2976 C.ar    
  12 C12            2.2681     4.9663    -3.9495 C.ar    
  13 C13            1.0740     5.2921    -3.3291 C.ar    
  14 C14            0.8002     4.8138    -2.0614 C.ar    
  15 F15            2.5335     5.4301    -5.1903 F       
  16 F16            3.8164     2.9102    -1.3889 F       
  17 N17            0.1496     4.0390     0.4711 N.3     
  18 H18           -0.5445     1.7859    -0.8732 H       
  19 H19           -0.5275     1.7763     0.9067 H       
  20 H20           -0.8759    -0.4094     0.0082 H       
  21 H21            1.4775     0.9953     1.9437 H       
  22 H22            1.9655     1.5581    -0.8562 H       
  23 H23            2.4496     4.8318     1.3770 H       
  24 H24            3.5441     3.7579     0.4474 H       
  25 H25            3.9264     0.5727     1.9426 H       
  26 H26            3.1662    -0.1075     0.4839 H       
  27 H27            4.0724     1.4213     0.3847 H       
  28 H28            4.1221     3.9111    -3.7807 H       
  29 H29            0.3545     5.9169    -3.8374 H       
  30 H30           -0.1333     5.0651    -1.5799 H       
  31 H31            0.1522     5.0479     0.4570 H       
  32 H32           -0.6271     3.6719    -0.0582 H       
@<TRIPOS>BOND
   1    1    2 1
   2    1    5 1
   3    1   18 1
   4    1   19 1
   5    2   20 1
   6    3    4 1
   7    3    7 1
   8    4    5 1
   9    4    8 1
  10    4   21 1
  11    5    6 1
  12    5   22 1
  13    6    7 1
  14    6    9 1
  15    6   17 1
  16    7   23 1
  17    7   24 1
  18    8   25 1
  19    8   26 1
  20    8   27 1
  21    9   10 ar
  22    9   14 ar
  23   10   11 ar
  24   10   16 1
  25   11   12 ar
  26   11   28 1
  27   12   13 ar
  28   12   15 1
  29   13   14 ar
  30   13   29 1
  31   14   30 1
  32   17   31 1
  33   17   32 1

#	End of record

