#	Name: ASD01915949
#	Creating user name:	WinNT
#	Creation time:	15. 06. 2019 20:06

#	Modifying user name:	WinNT
#	Modification time:	15. 06. 2019 20:06

#	Program:	/corina/corina34_cracker 3.40 0067  02.08.2006

@<TRIPOS>MOLECULE
ASD01915949
  39   42    0    0    0
SMALL
NO_CHARGES


@<TRIPOS>ATOM
   1 C1            -0.0018     1.4661     0.2348 C.2     
   2 C2             0.0693     0.1210    -0.0252 C.2     
   3 C3            -1.2023    -0.6654    -0.2997 C.3     
   4 C4            -2.3582    -0.0138     0.4568 C.3     
   5 N5            -2.4034     1.4321     0.2716 N.am    
   6 C6            -1.2796     2.1861     0.2801 C.2     
   7 O7            -1.3264     3.4013     0.3232 O.2     
   8 S8             1.6206     2.0715     0.4903 S.3     
   9 C9             2.2519     0.5009     0.2406 C.2     
  10 N10            1.2957    -0.3367    -0.0057 N.2     
  11 O11            4.2924     0.2861    -1.0001 O.3     
  12 C12            5.6153    -0.0001    -1.1219 C.ar    
  13 C13            6.2410     0.1175    -2.3545 C.ar    
  14 C14            6.3437    -0.4048    -0.0127 C.ar    
  15 C15            7.6885    -0.6946    -0.1391 C.ar    
  16 C16            8.3086    -0.5812    -1.3697 C.ar    
  17 C17            7.5860    -0.1735    -2.4757 C.ar    
  18 C18            3.7146     0.1429     0.2991 C.3     
  19 C19           -3.6367     2.0539     0.0803 C.ar    
  20 C20           -4.5818     2.0982     1.1044 C.ar    
  21 C21           -5.7898     2.7233     0.8751 C.ar    
  22 N22           -6.0552     3.2742    -0.2944 N.ar    
  23 C23           -5.1872     3.2533    -1.2883 C.ar    
  24 C24           -3.9546     2.6526    -1.1380 C.ar    
  25 H25           -1.4141    -0.6558    -1.3688 H       
  26 H26           -1.0766    -1.6933     0.0404 H       
  27 H27           -3.2962    -0.4437     0.1054 H       
  28 H28           -2.2501    -0.2298     1.5197 H       
  29 H29            5.6769     0.4360    -3.2188 H       
  30 H30            5.8599    -0.4928     0.9488 H       
  31 H31            8.2559    -1.0097     0.7241 H       
  32 H32            9.3601    -0.8080    -1.4664 H       
  33 H33            8.0726    -0.0860    -3.4359 H       
  34 H34            4.2234     0.8066     0.9982 H       
  35 H35            3.8230    -0.8890     0.6332 H       
  36 H36           -4.3711     1.6490     2.0637 H       
  37 H37           -6.5280     2.7621     1.6625 H       
  38 H38           -5.4437     3.7156    -2.2300 H       
  39 H39           -3.2487     2.6393    -1.9553 H       
@<TRIPOS>BOND
   1    1    2 2
   2    1    8 1
   3    1    6 1
   4    2    3 1
   5    2   10 1
   6    3    4 1
   7    3   25 1
   8    3   26 1
   9    4    5 1
  10    4   27 1
  11    4   28 1
  12    5    6 am
  13    5   19 1
  14    6    7 2
  15    8    9 1
  16    9   10 2
  17    9   18 1
  18   11   12 1
  19   11   18 1
  20   12   13 ar
  21   12   14 ar
  22   13   17 ar
  23   13   29 1
  24   14   15 ar
  25   14   30 1
  26   15   16 ar
  27   15   31 1
  28   16   17 ar
  29   16   32 1
  30   17   33 1
  31   18   34 1
  32   18   35 1
  33   19   20 ar
  34   19   24 ar
  35   20   21 ar
  36   20   36 1
  37   21   22 ar
  38   21   37 1
  39   22   23 ar
  40   23   24 ar
  41   23   38 1
  42   24   39 1

#	End of record

