#	Name: ASD01940313
#	Creating user name:	WinNT
#	Creation time:	15. 06. 2019 20:12

#	Modifying user name:	WinNT
#	Modification time:	15. 06. 2019 20:12

#	Program:	/corina/corina34_cracker 3.40 0067  02.08.2006

@<TRIPOS>MOLECULE
ASD01940313
  16   16    0    0    0
SMALL
NO_CHARGES


@<TRIPOS>ATOM
   1 C1            -0.0173     1.4248     0.0099 C.3     
   2 O2             0.0021    -0.0041     0.0020 O.3     
   3 C3             1.3965     1.9464    -0.0008 C.ar    
   4 C4             2.0326     2.1917    -1.2033 C.ar    
   5 C5             3.3312     2.6709    -1.2152 C.ar    
   6 C6             3.9937     2.9046    -0.0205 C.ar    
   7 C7             3.3542     2.6580     1.1841 C.ar    
   8 C8             2.0535     2.1842     1.1919 C.ar    
   9 F9             3.9979     2.8846     2.3501 F       
  10 F10            5.2613     3.3718    -0.0301 F       
  11 F11            3.9527     2.9101    -2.3907 F       
  12 H12           -0.5445     1.7859    -0.8732 H       
  13 H13           -0.5275     1.7763     0.9067 H       
  14 H14           -0.8759    -0.4094     0.0082 H       
  15 H15            1.5161     2.0091    -2.1340 H       
  16 H16            1.5532     1.9961     2.1303 H       
@<TRIPOS>BOND
   1    1    2 1
   2    1    3 1
   3    1   12 1
   4    1   13 1
   5    2   14 1
   6    3    4 ar
   7    3    8 ar
   8    4    5 ar
   9    4   15 1
  10    5    6 ar
  11    5   11 1
  12    6    7 ar
  13    6   10 1
  14    7    8 ar
  15    7    9 1
  16    8   16 1

#	End of record

