#	Name: ASD03740239
#	Creating user name:	WinNT
#	Creation time:	15. 06. 2019 20:46

#	Modifying user name:	WinNT
#	Modification time:	15. 06. 2019 20:46

#	Program:	/corina/corina34_cracker 3.40 0067  02.08.2006

@<TRIPOS>MOLECULE
ASD03740239
  51   54    0    0    0
SMALL
NO_CHARGES


@<TRIPOS>ATOM
   1 S1            -0.2631     0.8436    -0.0830 S.3     
   2 C2             0.6007     2.3243    -0.4706 C.2     
   3 C3             1.9412     2.0921    -0.4875 C.2     
   4 C4             2.3061     0.7919    -0.2064 C.2     
   5 C5             1.2445    -0.0518     0.0444 C.2     
   6 C6            -0.0361     3.6310    -0.7389 C.ar    
   7 C7             1.3523    -1.4302     0.3572 C.2     
   8 C8             3.7172     0.3405    -0.1769 C.ar    
   9 O9             2.4432    -1.9694     0.3623 O.2     
  10 O10            0.2451    -2.1446     0.6492 O.3     
  11 C11            4.5303     0.6560     0.9109 C.ar    
  12 C12            6.3538    -0.5028    -0.1218 C.ar    
  13 C13            5.5501    -0.8238    -1.2014 C.ar    
  14 C14            5.8438     0.2329     0.9326 C.ar    
  15 C15            4.2355    -0.4064    -1.2345 C.ar    
  16 C16           -1.4256     3.7560    -0.6941 C.ar    
  17 C17           -1.2291     6.0789    -1.2421 C.ar    
  18 C18            0.1491     5.9632    -1.2821 C.ar    
  19 C19           -2.0135     4.9784    -0.9455 C.ar    
  20 C20            0.7497     4.7466    -1.0326 C.ar    
  21 C21            3.9763     1.4579     2.0603 C.3     
  22 C22            4.1334     0.6639     3.3586 C.3     
  23 C23            3.5709     1.4780     4.5256 C.3     
  24 C24            4.3339     2.7992     4.6403 C.3     
  25 C25            4.1768     3.5932     3.3419 C.3     
  26 C26            4.7393     2.7791     2.1750 C.3     
  27 C27            3.7714     3.6133     5.8072 C.3     
  28 H28            2.6633     2.8654    -0.7045 H       
  29 H29            0.4184    -3.0747     0.8490 H       
  30 H30            7.3822    -0.8321    -0.1002 H       
  31 H31            5.9539    -1.3985    -2.0218 H       
  32 H32            6.4747     0.4770     1.7745 H       
  33 H33            3.6090    -0.6579    -2.0775 H       
  34 H34           -2.0390     2.8976    -0.4634 H       
  35 H35           -1.6944     7.0337    -1.4378 H       
  36 H36            0.7557     6.8261    -1.5142 H       
  37 H37           -3.0885     5.0765    -0.9112 H       
  38 H38            1.8256     4.6576    -1.0641 H       
  39 H39            2.9201     1.6623     1.8849 H       
  40 H40            3.5899    -0.2774     3.2769 H       
  41 H41            5.1896     0.4595     3.5340 H       
  42 H42            2.5147     1.6824     4.3502 H       
  43 H43            3.6828     0.9123     5.4505 H       
  44 H44            5.3901     2.5948     4.8156 H       
  45 H45            3.1205     3.7976     3.1665 H       
  46 H46            4.7203     4.5345     3.4236 H       
  47 H47            5.7955     2.5747     2.3503 H       
  48 H48            4.6273     3.3448     1.2500 H       
  49 H49            3.8833     3.0476     6.7322 H       
  50 H50            4.3149     4.5546     5.8889 H       
  51 H51            2.7152     3.8177     5.6318 H       
@<TRIPOS>BOND
   1    1    2 1
   2    1    5 1
   3    2    3 2
   4    2    6 1
   5    3    4 1
   6    3   28 1
   7    4    5 2
   8    4    8 1
   9    5    7 1
  10    6   16 ar
  11    6   20 ar
  12    7    9 2
  13    7   10 1
  14    8   11 ar
  15    8   15 ar
  16   10   29 1
  17   11   14 ar
  18   11   21 1
  19   12   13 ar
  20   12   14 ar
  21   12   30 1
  22   13   15 ar
  23   13   31 1
  24   14   32 1
  25   15   33 1
  26   16   19 ar
  27   16   34 1
  28   17   18 ar
  29   17   19 ar
  30   17   35 1
  31   18   20 ar
  32   18   36 1
  33   19   37 1
  34   20   38 1
  35   21   22 1
  36   21   26 1
  37   21   39 1
  38   22   23 1
  39   22   40 1
  40   22   41 1
  41   23   24 1
  42   23   42 1
  43   23   43 1
  44   24   25 1
  45   24   27 1
  46   24   44 1
  47   25   26 1
  48   25   45 1
  49   25   46 1
  50   26   47 1
  51   26   48 1
  52   27   49 1
  53   27   50 1
  54   27   51 1

#	End of record

