#	Name: ASD03091641
#	Creating user name:	WinNT
#	Creation time:	15. 06. 2019 20:31

#	Modifying user name:	WinNT
#	Modification time:	15. 06. 2019 20:31

#	Program:	/corina/corina34_cracker 3.40 0067  02.08.2006

@<TRIPOS>MOLECULE
ASD03091641
  40   42    0    0    0
SMALL
NO_CHARGES


@<TRIPOS>ATOM
   1 Cl1            0.0000     0.0000     0.0000 Cl      
   2 H2             0.0000     1.3700     0.0000 H       
   3 C3            14.5230    10.3498     6.5698 C.ar    
   4 C4            14.5419     8.9502     6.5621 C.ar    
   5 C5            15.7662     8.2695     6.5463 C.ar    
   6 C6            16.9481     8.9736     6.5384 C.ar    
   7 C7            16.9329    10.3633     6.5464 C.ar    
   8 C8            15.7572    11.0445     6.5617 C.ar    
   9 S9            12.8919     8.3383     6.5751 S.3     
  10 C10           12.2357     9.9657     6.5904 C.2     
  11 C11           13.2194    10.8711     6.5907 C.2     
  12 C12           10.8016    10.2890     6.6059 C.2     
  13 O13           10.4400    11.4504     6.6153 O.2     
  14 N14            9.8876     9.2986     6.6097 N.am    
  15 N15            6.9512     8.8766     8.4057 N.3     
  16 C16            7.9995     9.8489     8.0683 C.3     
  17 C17            8.4585     9.6207     6.6252 C.3     
  18 C18            7.6618     8.4523     6.0313 C.3     
  19 C19            6.1688     8.7999     6.0868 C.3     
  20 C20            5.7731     9.0502     7.5447 C.3     
  21 C21            7.4619     7.5010     8.3269 C.3     
  22 C22            7.9063     7.2061     6.8915 C.3     
  23 F23           15.7864     6.9186     6.5393 F       
  24 H24           17.8900     8.4452     6.5262 H       
  25 H25           17.8657    10.9077     6.5408 H       
  26 H26           15.7639    12.1245     6.5671 H       
  27 H27           13.0242    11.9333     6.5994 H       
  28 H28           10.1759     8.3724     6.6022 H       
  29 H29            7.6039    10.8596     8.1685 H       
  30 H30            8.8455     9.7206     8.7435 H       
  31 H31            8.2788    10.5212     6.0380 H       
  32 H32            7.9675     8.2760     5.0000 H       
  33 H33            5.9807     9.6978     5.4980 H       
  34 H34            5.5855     7.9702     5.6874 H       
  35 H35            5.0000     8.3404     7.8388 H       
  36 H36            5.3930    10.0665     7.6491 H       
  37 H37            8.3113     7.3893     9.0008 H       
  38 H38            6.6749     6.8038     8.6145 H       
  39 H39            7.3300     6.3700     6.4953 H       
  40 H40            8.9676     6.9578     6.8815 H       
@<TRIPOS>BOND
   1    1    2 1
   2    3    4 ar
   3    3    8 ar
   4    3   11 1
   5    4    5 ar
   6    4    9 1
   7    5    6 ar
   8    5   23 1
   9    6    7 ar
  10    6   24 1
  11    7    8 ar
  12    7   25 1
  13    8   26 1
  14    9   10 1
  15   10   11 2
  16   10   12 1
  17   11   27 1
  18   12   13 2
  19   12   14 am
  20   14   17 1
  21   14   28 1
  22   15   16 1
  23   15   20 1
  24   15   21 1
  25   16   17 1
  26   16   29 1
  27   16   30 1
  28   17   18 1
  29   17   31 1
  30   18   19 1
  31   18   22 1
  32   18   32 1
  33   19   20 1
  34   19   33 1
  35   19   34 1
  36   20   35 1
  37   20   36 1
  38   21   22 1
  39   21   37 1
  40   21   38 1
  41   22   39 1
  42   22   40 1

#	End of record

