#	Name: ASD06020129
#	Creating user name:	WinNT
#	Creation time:	15. 06. 2019 21:04

#	Modifying user name:	WinNT
#	Modification time:	15. 06. 2019 21:04

#	Program:	/corina/corina34_cracker 3.40 0067  02.08.2006

@<TRIPOS>MOLECULE
ASD06020129
  37   40    0    0    0
SMALL
NO_CHARGES


@<TRIPOS>ATOM
   1 C1            -0.0167     1.3963     0.0027 C.ar    
   2 C2             0.0030    -0.0035     0.0026 C.ar    
   3 C3             1.2268    -0.6795    -0.0197 C.ar    
   4 C4             2.4126     0.1242    -0.0410 C.ar    
   5 C5             2.2912     1.5063    -0.0384 C.ar    
   6 N6             1.1093     2.0916    -0.0181 N.ar    
   7 S7            -1.2891    -1.1992     0.0257 S.3     
   8 C8            -0.1006    -2.4960     0.0038 C.2     
   9 N9             1.0970    -2.0020    -0.0178 N.2     
  10 C10            3.7057    -0.4906    -0.0641 C.1     
  11 N11            4.7315    -0.9783    -0.0825 N.1     
  12 C12           -0.4209    -3.9369     0.0096 C.ar    
  13 C13            0.6131    -4.8936    -0.0095 C.ar    
  14 C14            0.2949    -6.2509    -0.0038 C.ar    
  15 C15           -1.0264    -6.6511     0.0200 C.ar    
  16 C16           -2.0438    -5.7132     0.0388 C.ar    
  17 C17           -1.7504    -4.3612     0.0398 C.ar    
  18 F18           -2.7498    -3.4524     0.0639 F       
  19 C19            1.9821    -4.4746    -0.0351 C.1     
  20 N20            3.0682    -4.1422    -0.0554 N.1     
  21 N21           -1.2333     2.0638     0.0191 N.pl3   
  22 C22           -0.1619     5.4471     0.4374 C.ar    
  23 N23           -0.1413     4.1341     0.3300 N.ar    
  24 C24           -1.2646     3.4469     0.1315 C.ar    
  25 C25           -2.4699     4.1356     0.0381 C.ar    
  26 C26           -2.4478     5.5220     0.1570 C.ar    
  27 N27           -1.2822     6.1352     0.3546 N.ar    
  28 N28           -3.6219     6.2541     0.0707 N.pl3   
  29 H29            3.1828     2.1155    -0.0544 H       
  30 H30            1.0824    -6.9898    -0.0183 H       
  31 H31           -1.2677    -7.7038     0.0237 H       
  32 H32           -3.0734    -6.0388     0.0573 H       
  33 H33           -2.0617     1.5637    -0.0480 H       
  34 H34            0.7662     5.9742     0.6026 H       
  35 H35           -3.3985     3.6081    -0.1229 H       
  36 H36           -4.4669     5.8003    -0.0736 H       
  37 H37           -3.5983     7.2202     0.1546 H       
@<TRIPOS>BOND
   1    1    2 ar
   2    1    6 ar
   3    1   21 1
   4    2    3 ar
   5    2    7 1
   6    3    4 ar
   7    3    9 1
   8    4    5 ar
   9    4   10 1
  10    5    6 ar
  11    5   29 1
  12    7    8 1
  13    8    9 2
  14    8   12 1
  15   10   11 3
  16   12   13 ar
  17   12   17 ar
  18   13   14 ar
  19   13   19 1
  20   14   15 ar
  21   14   30 1
  22   15   16 ar
  23   15   31 1
  24   16   17 ar
  25   16   32 1
  26   17   18 1
  27   19   20 3
  28   21   24 1
  29   21   33 1
  30   22   23 ar
  31   22   27 ar
  32   22   34 1
  33   23   24 ar
  34   24   25 ar
  35   25   26 ar
  36   25   35 1
  37   26   27 ar
  38   26   28 1
  39   28   36 1
  40   28   37 1

#	End of record

