#	Name: ASD01208735
#	Creating user name:	WinNT
#	Creation time:	15. 06. 2019 19:10

#	Modifying user name:	WinNT
#	Modification time:	15. 06. 2019 19:10

#	Program:	/corina/corina34_cracker 3.40 0067  02.08.2006

@<TRIPOS>MOLECULE
ASD01208735
  56   59    0    0    0
SMALL
NO_CHARGES


@<TRIPOS>ATOM
   1 C1            -0.5144     1.4609     1.4808 C.2     
   2 C2            -0.3537     0.1493     0.8181 C.ar    
   3 C3             0.8825    -0.2186     0.2851 C.ar    
   4 C4             1.0287    -1.4483    -0.3350 C.ar    
   5 C5            -0.0516    -2.3141    -0.4268 C.ar    
   6 C6            -1.2826    -1.9522     0.1013 C.ar    
   7 C7            -1.4360    -0.7265     0.7288 C.ar    
   8 O8             0.4311     2.2207     1.5621 O.2     
   9 N9            -1.7105     1.8166     1.9900 N.am    
  10 O10           -2.3375    -2.8036     0.0083 O.3     
  11 C11           -3.1549    -2.6907    -1.0705 C.ar    
  12 C12           -4.3049    -3.4657    -1.1526 C.ar    
  13 C13           -5.1367    -3.3539    -2.2456 C.ar    
  14 C14           -4.8226    -2.4600    -3.2712 C.ar    
  15 C15           -3.6660    -1.6825    -3.1849 C.ar    
  16 C16           -2.8417    -1.7964    -2.0864 C.ar    
  17 O17           -5.5323    -1.5203    -5.5023 O.3     
  18 C18           -5.7116    -2.3375    -4.4452 C.2     
  19 N19           -6.8232    -3.0041    -4.6532 N.2     
  20 N20           -7.3322    -2.6399    -5.7773 N.2     
  21 C21           -6.5726    -1.7343    -6.3268 C.2     
  22 C22           -6.8165    -1.0505    -7.6474 C.3     
  23 C23           -7.6457     0.2152    -7.4208 C.3     
  24 O24           -7.8770     0.8637    -8.6730 O.3     
  25 S25           -3.3533     3.6583     3.3256 S.3     
  26 C26           -1.8615     3.0499     2.6131 C.2     
  27 N27           -0.9259     3.9369     2.7629 N.2     
  28 C28           -1.2541     5.0552     3.3825 C.2     
  29 C29           -2.5233     5.1431     3.7866 C.2     
  30 F30           -3.0765     6.1901     4.4371 F       
  31 O31            2.2321    -1.8073    -0.8547 O.3     
  32 C32            2.3120    -3.0897    -1.4802 C.3     
  33 C33            3.7329    -3.3154    -2.0009 C.3     
  34 C34            3.8172    -4.6678    -2.6605 C.2     
  35 C35            4.2446    -4.7690    -3.8947 C.2     
  36 H36            1.7239     0.4547     0.3558 H       
  37 H37            0.0659    -3.2723    -0.9110 H       
  38 H38           -2.3932    -0.4474     1.1439 H       
  39 H39           -2.4659     1.2120     1.9216 H       
  40 H40           -4.5472    -4.1569    -0.3589 H       
  41 H41           -6.0302    -3.9573    -2.3090 H       
  42 H42           -3.4198    -0.9899    -3.9762 H       
  43 H43           -1.9490    -1.1926    -2.0171 H       
  44 H44           -5.8617    -0.7831    -8.1000 H       
  45 H45           -7.3572    -1.7249    -8.3114 H       
  46 H46           -8.6006    -0.0521    -6.9682 H       
  47 H47           -7.1051     0.8897    -6.7567 H       
  48 H48           -8.3979     1.6756    -8.6051 H       
  49 H49           -0.5411     5.8484     3.5522 H       
  50 H50            2.0637    -3.8640    -0.7545 H       
  51 H51            1.6091    -3.1326    -2.3122 H       
  52 H52            3.9812    -2.5411    -2.7266 H       
  53 H53            4.4358    -3.2725    -1.1689 H       
  54 H54            3.5252    -5.5535    -2.1158 H       
  55 H55            4.5365    -3.8834    -4.4394 H       
  56 H56            4.3050    -5.7382    -4.3674 H       
@<TRIPOS>BOND
   1    1    2 1
   2    1    8 2
   3    1    9 am
   4    2    3 ar
   5    2    7 ar
   6    3    4 ar
   7    3   36 1
   8    4    5 ar
   9    4   31 1
  10    5    6 ar
  11    5   37 1
  12    6    7 ar
  13    6   10 1
  14    7   38 1
  15    9   26 1
  16    9   39 1
  17   10   11 1
  18   11   12 ar
  19   11   16 ar
  20   12   13 ar
  21   12   40 1
  22   13   14 ar
  23   13   41 1
  24   14   15 ar
  25   14   18 1
  26   15   16 ar
  27   15   42 1
  28   16   43 1
  29   17   18 1
  30   17   21 1
  31   18   19 2
  32   19   20 1
  33   20   21 2
  34   21   22 1
  35   22   23 1
  36   22   44 1
  37   22   45 1
  38   23   24 1
  39   23   46 1
  40   23   47 1
  41   24   48 1
  42   25   26 1
  43   25   29 1
  44   26   27 2
  45   27   28 1
  46   28   29 2
  47   28   49 1
  48   29   30 1
  49   31   32 1
  50   32   33 1
  51   32   50 1
  52   32   51 1
  53   33   34 1
  54   33   52 1
  55   33   53 1
  56   34   35 2
  57   34   54 1
  58   35   55 1
  59   35   56 1

#	End of record

