#	Name: ASD05310008
#	Creating user name:	WinNT
#	Creation time:	15. 06. 2019 20:58

#	Modifying user name:	WinNT
#	Modification time:	15. 06. 2019 20:58

#	Program:	/corina/corina34_cracker 3.40 0067  02.08.2006

@<TRIPOS>MOLECULE
ASD05310008
  65   67    0    0    0
SMALL
NO_CHARGES


@<TRIPOS>ATOM
   1 C1             0.0740     1.1247    -0.7093 C.ar    
   2 C2             0.1124    -0.1490    -0.1626 C.ar    
   3 C3             1.2347    -0.5695     0.5410 C.ar    
   4 C4             2.3153     0.2783     0.6985 C.ar    
   5 C5             2.2866     1.5478     0.1586 C.ar    
   6 C6             1.1640     1.9797    -0.5504 C.ar    
   7 C7             3.4670     2.4681     0.3342 C.3     
   8 C8             1.1310     3.3393    -1.1308 C.2     
   9 N9             0.0013     3.8006    -1.7029 N.am    
  10 C10           -0.0314     5.1476    -2.2780 C.3     
  11 C11           -1.4204     5.4209    -2.8583 C.3     
  12 C12           -1.4050     6.7119    -3.5300 C.3     
  13 C13           -1.8000     4.2677    -3.8098 C.3     
  14 C14           -2.7887     7.0996    -4.0903 C.3     
  15 C15           -3.2959     4.2543    -3.9719 C.3     
  16 C16           -2.9989     6.3725    -5.3908 C.3     
  17 C17           -3.7621     5.0466    -5.2083 C.3     
  18 N18           -0.9794    -1.0110    -0.3189 N.am    
  19 N19           -2.2697    -0.5508    -0.0305 N.2     
  20 C20           -3.2914    -1.3493    -0.1741 C.2     
  21 C21           -3.0634    -2.7206    -0.6377 C.2     
  22 N22           -1.8038    -3.1237    -0.9044 N.am    
  23 C23           -0.7755    -2.2688    -0.7493 C.2     
  24 C24           -1.5556    -4.4908    -1.3688 C.3     
  25 C25           -1.6186    -4.5296    -2.8970 C.3     
  26 C26           -1.4836    -5.9763    -3.3765 C.3     
  27 O27           -1.6588    -6.0267    -4.7938 O.3     
  28 C28           -1.5513    -7.3402    -5.3463 C.3     
  29 O29           -3.9986    -3.4865    -0.7799 O.2     
  30 O30           -0.5522    -3.7472    -3.4378 O.3     
  31 O31            0.3551    -2.6407    -0.9976 O.2     
  32 O32            2.1229     4.0409    -1.0920 O.2     
  33 O33           -2.3673     5.4668    -1.7890 O.3     
  34 H34           -0.7955     1.4518    -1.2603 H       
  35 H35            1.2626    -1.5618     0.9665 H       
  36 H36            3.1847    -0.0541     1.2463 H       
  37 H37            4.1016     2.4180    -0.5506 H       
  38 H38            3.1136     3.4902     0.4704 H       
  39 H39            4.0394     2.1618     1.2097 H       
  40 H40           -0.7902     3.2407    -1.7339 H       
  41 H41            0.1883     5.8798    -1.5010 H       
  42 H42            0.7143     5.2229    -3.0694 H       
  43 H43           -1.0849     7.4751    -2.8206 H       
  44 H44           -0.6895     6.6739    -4.3515 H       
  45 H45           -1.3279     4.4231    -4.7799 H       
  46 H46           -1.4691     3.3195    -3.3862 H       
  47 H47           -3.5646     6.8124    -3.3806 H       
  48 H48           -2.8259     8.1754    -4.2621 H       
  49 H49           -3.6309     3.2215    -4.0680 H       
  50 H50           -3.7509     4.6893    -3.0821 H       
  51 H51           -3.5640     7.0146    -6.0664 H       
  52 H52           -2.0275     6.1616    -5.8379 H       
  53 H53           -3.6151     4.4314    -6.0960 H       
  54 H54           -4.8253     5.2641    -5.1061 H       
  55 H55           -4.2910    -1.0046     0.0458 H       
  56 H56           -0.5685    -4.8134    -1.0376 H       
  57 H57           -2.3130    -5.1577    -0.9569 H       
  58 H58           -2.5732    -4.1235    -3.2317 H       
  59 H59           -0.4939    -6.3535    -3.1190 H       
  60 H60           -2.2436    -6.5913    -2.8943 H       
  61 H61           -1.6963    -7.2933    -6.4256 H       
  62 H62           -0.5630    -7.7457    -5.1298 H       
  63 H63           -2.3127    -7.9834    -4.9051 H       
  64 H64            0.3288    -4.0519    -3.1808 H       
  65 H65           -2.4221     4.6485    -1.2768 H       
@<TRIPOS>BOND
   1    1    2 ar
   2    1    6 ar
   3    1   34 1
   4    2    3 ar
   5    2   18 1
   6    3    4 ar
   7    3   35 1
   8    4    5 ar
   9    4   36 1
  10    5    6 ar
  11    5    7 1
  12    6    8 1
  13    7   37 1
  14    7   38 1
  15    7   39 1
  16    8    9 am
  17    8   32 2
  18    9   10 1
  19    9   40 1
  20   10   11 1
  21   10   41 1
  22   10   42 1
  23   11   12 1
  24   11   13 1
  25   11   33 1
  26   12   14 1
  27   12   43 1
  28   12   44 1
  29   13   15 1
  30   13   45 1
  31   13   46 1
  32   14   16 1
  33   14   47 1
  34   14   48 1
  35   15   17 1
  36   15   49 1
  37   15   50 1
  38   16   17 1
  39   16   51 1
  40   16   52 1
  41   17   53 1
  42   17   54 1
  43   18   19 1
  44   18   23 am
  45   19   20 2
  46   20   21 1
  47   20   55 1
  48   21   22 am
  49   21   29 2
  50   22   23 am
  51   22   24 1
  52   23   31 2
  53   24   25 1
  54   24   56 1
  55   24   57 1
  56   25   26 1
  57   25   30 1
  58   25   58 1
  59   26   27 1
  60   26   59 1
  61   26   60 1
  62   27   28 1
  63   28   61 1
  64   28   62 1
  65   28   63 1
  66   30   64 1
  67   33   65 1

#	End of record

