#	Name: ASD01903007
#	Creating user name:	WinNT
#	Creation time:	15. 06. 2019 19:54

#	Modifying user name:	WinNT
#	Modification time:	15. 06. 2019 19:54

#	Program:	/corina/corina34_cracker 3.40 0067  02.08.2006

@<TRIPOS>MOLECULE
ASD01903007
  42   44    0    0    0
SMALL
NO_CHARGES


@<TRIPOS>ATOM
   1 C1            -0.0023     1.3865    -0.2246 C.ar    
   2 C2             0.0134     0.0009    -0.2378 C.ar    
   3 C3             1.2048    -0.6809    -0.0312 C.ar    
   4 C4             2.3750     0.0202     0.1882 C.ar    
   5 C5             2.3636     1.4017     0.2022 C.ar    
   6 C6             1.1744     2.0893    -0.0044 C.ar    
   7 N7             1.1627     3.4875     0.0092 N.am    
   8 C8             0.1025     4.1476     0.5158 C.2     
   9 O9            -0.8799     3.5302     0.8832 O.2     
  10 C10            0.1325     5.6094     0.6242 C.2     
  11 O11            1.1532     6.4110     0.2552 O.3     
  12 C12            0.8273     7.6868     0.5001 C.2     
  13 C13           -0.4140     7.7240     1.0328 C.2     
  14 C14           -0.8699     6.3988     1.1109 C.2     
  15 O15           -1.1369    -0.6901    -0.4526 O.3     
  16 C16           -1.0466    -2.1162    -0.4529 C.3     
  17 C17           -2.4312    -2.7148    -0.7087 C.3     
  18 C18           -2.3360    -4.2188    -0.7091 C.2     
  19 C19           -3.5401    -5.0315    -0.9349 C.ar    
  20 O20           -1.2661    -4.7587    -0.5231 O.2     
  21 C21           -3.4551    -6.4284    -0.9359 C.ar    
  22 C22           -4.5872    -7.1840    -1.1477 C.ar    
  23 C23           -5.9016    -5.1791    -1.3547 C.ar    
  24 C24           -4.7772    -4.4118    -1.1442 C.ar    
  25 C25           -5.8095    -6.5632    -1.3596 C.ar    
  26 F26           -6.9161    -7.3101    -1.5667 F       
  27 H27           -0.9275     1.9187    -0.3896 H       
  28 H28            1.2169    -1.7607    -0.0415 H       
  29 H29            3.3004    -0.5127     0.3495 H       
  30 H30            3.2796     1.9473     0.3743 H       
  31 H31            1.9177     3.9823    -0.3459 H       
  32 H32            1.4536     8.5446     0.3040 H       
  33 H33           -0.9553     8.6077     1.3370 H       
  34 H34           -1.8257     6.0672     1.4890 H       
  35 H35           -0.3616    -2.4367    -1.2378 H       
  36 H36           -0.6764    -2.4571     0.5139 H       
  37 H37           -3.1163    -2.3943     0.0761 H       
  38 H38           -2.8014    -2.3740    -1.6756 H       
  39 H39           -2.5040    -6.9128    -0.7713 H       
  40 H40           -4.5230    -8.2621    -1.1490 H       
  41 H41           -6.8570    -4.7021    -1.5163 H       
  42 H42           -4.8502    -3.3342    -1.1405 H       
@<TRIPOS>BOND
   1    1    2 ar
   2    1    6 ar
   3    1   27 1
   4    2    3 ar
   5    2   15 1
   6    3    4 ar
   7    3   28 1
   8    4    5 ar
   9    4   29 1
  10    5    6 ar
  11    5   30 1
  12    6    7 1
  13    7    8 am
  14    7   31 1
  15    8    9 2
  16    8   10 1
  17   10   11 1
  18   10   14 2
  19   11   12 1
  20   12   13 2
  21   12   32 1
  22   13   14 1
  23   13   33 1
  24   14   34 1
  25   15   16 1
  26   16   17 1
  27   16   35 1
  28   16   36 1
  29   17   18 1
  30   17   37 1
  31   17   38 1
  32   18   19 1
  33   18   20 2
  34   19   21 ar
  35   19   24 ar
  36   21   22 ar
  37   21   39 1
  38   22   25 ar
  39   22   40 1
  40   23   24 ar
  41   23   25 ar
  42   23   41 1
  43   24   42 1
  44   25   26 1

#	End of record

