#	Name: ASD01230005
#	Creating user name:	WinNT
#	Creation time:	15. 06. 2019 19:11

#	Modifying user name:	WinNT
#	Modification time:	15. 06. 2019 19:11

#	Program:	/corina/corina34_cracker 3.40 0067  02.08.2006

@<TRIPOS>MOLECULE
ASD01230005
  23   24    0    0    0
SMALL
NO_CHARGES


@<TRIPOS>ATOM
   1 S1            -0.0206     1.6671     0.0112 S.o2    
   2 N2             0.0021    -0.0041     0.0020 N.am    
   3 C3             1.0128    -0.6059     0.7124 C.2     
   4 N4             2.1742    -0.0821     0.8820 N.2     
   5 C5             2.6034     1.1382     0.4562 C.ar    
   6 C6             1.6952     2.0994    -0.0029 C.ar    
   7 C7             3.9642     1.4544     0.4670 C.ar    
   8 C8             4.3866     2.6920     0.0246 C.ar    
   9 C9             3.4735     3.6275    -0.4311 C.ar    
  10 C10            2.1204     3.3256    -0.4436 C.ar    
  11 S11            4.0309     5.2009    -0.9956 S.o2    
  12 O12            5.1016     4.9482    -1.8951 O.2     
  13 O13            2.8677     5.9324    -1.3578 O.2     
  14 N14            4.6891     5.9839     0.3067 N.am    
  15 Cl15           6.0788     3.0790     0.0404 Cl      
  16 O16           -0.5636     2.0819    -1.2347 O.2     
  17 O17           -0.5397     2.0685     1.2717 O.2     
  18 H18           -0.6628    -0.5215    -0.4787 H       
  19 H19            0.8204    -1.5729     1.1531 H       
  20 H20            4.6845     0.7319     0.8212 H       
  21 H21            1.4051     4.0532    -0.7976 H       
  22 H22            4.7072     5.5510     1.1746 H       
  23 H23            5.0566     6.8754     0.2016 H       
@<TRIPOS>BOND
   1    1    2 am
   2    1    6 1
   3    1   16 2
   4    1   17 2
   5    2    3 1
   6    2   18 1
   7    3    4 2
   8    3   19 1
   9    4    5 1
  10    5    6 ar
  11    5    7 ar
  12    6   10 ar
  13    7    8 ar
  14    7   20 1
  15    8    9 ar
  16    8   15 1
  17    9   10 ar
  18    9   11 1
  19   10   21 1
  20   11   12 2
  21   11   13 2
  22   11   14 am
  23   14   22 1
  24   14   23 1

#	End of record

