#	Name: ASD02030235
#	Creating user name:	WinNT
#	Creation time:	15. 06. 2019 20:14

#	Modifying user name:	WinNT
#	Modification time:	15. 06. 2019 20:14

#	Program:	/corina/corina34_cracker 3.40 0067  02.08.2006

@<TRIPOS>MOLECULE
ASD02030235
  56   60    0    0    0
SMALL
NO_CHARGES


@<TRIPOS>ATOM
   1 N1            -0.8731     2.0026    -1.2343 N.am    
   2 C2            -0.8497     0.5620    -1.5240 C.3     
   3 C3            -1.0855    -0.2047    -0.2168 C.3     
   4 N4            -2.2625     0.3637     0.4552 N.am    
   5 C5            -2.2858     1.8043     0.7450 C.3     
   6 C6            -2.0476     2.5700    -0.5572 C.3     
   7 C7             0.1665     2.7884    -1.5783 C.2     
   8 C8             1.3877     2.1878    -2.1559 C.2     
   9 N9             2.5109     2.8202    -2.4191 N.2     
  10 N10            1.5482     0.8967    -2.4997 N.2     
  11 C11            2.7626     0.7675    -2.9698 C.2     
  12 N12            3.3528     1.9791    -2.9131 N.pl3   
  13 C13            4.6603     2.2734    -3.3227 C.ar    
  14 O14            0.1000     3.9910    -1.4136 O.2     
  15 C15           -3.3020    -0.4221     0.7992 C.2     
  16 C16           -3.2889    -1.8502     0.4547 C.2     
  17 O17           -4.2514     0.0513     1.3951 O.2     
  18 C18            5.1494     3.5680    -3.2107 C.ar    
  19 C19            6.4387     3.8556    -3.6147 C.ar    
  20 C20            7.2424     2.8562    -4.1307 C.ar    
  21 C21            6.7580     1.5645    -4.2443 C.ar    
  22 C22            5.4709     1.2697    -3.8359 C.ar    
  23 C23           -3.6473     2.1890     1.3275 C.3     
  24 C24           -4.4585    -2.6965     0.1550 C.ar    
  25 C25           -3.9481    -3.9765    -0.1134 C.ar    
  26 N26           -2.5759    -3.9098     0.0140 N.pl3   
  27 C27           -2.1922    -2.6530     0.3431 C.2     
  28 C28           -5.8309    -2.4659     0.0991 C.ar    
  29 C29           -6.6835    -3.4996    -0.2206 C.ar    
  30 C30           -6.1808    -4.7654    -0.4857 C.ar    
  31 C31           -4.8255    -5.0073    -0.4344 C.ar    
  32 C32           -1.6623    -5.0376    -0.1848 C.3     
  33 Cl33           7.7701     0.3125    -4.8938 Cl      
  34 H34           -1.6374     0.3196    -2.2375 H       
  35 H35            0.1202     0.2880    -1.9390 H       
  36 H36           -1.2628    -1.2574    -0.4370 H       
  37 H37           -0.2125    -0.1053     0.4282 H       
  38 H38           -1.4982     2.0467     1.4584 H       
  39 H39           -1.8705     3.6225    -0.3356 H       
  40 H40           -2.9193     2.4715    -1.2042 H       
  41 H41            3.2119    -0.1444    -3.3344 H       
  42 H42            4.5221     4.3497    -2.8084 H       
  43 H43            6.8192     4.8626    -3.5276 H       
  44 H44            8.2500     3.0837    -4.4461 H       
  45 H45            5.0931     0.2618    -3.9242 H       
  46 H46           -3.7759     1.7095     2.2978 H       
  47 H47           -3.6986     3.2711     1.4473 H       
  48 H48           -4.4373     1.8603     0.6522 H       
  49 H49           -1.1719    -2.3363     0.5012 H       
  50 H50           -6.2247    -1.4818     0.3057 H       
  51 H51           -7.7483    -3.3240    -0.2648 H       
  52 H52           -6.8584    -5.5686    -0.7346 H       
  53 H53           -4.4446    -5.9962    -0.6428 H       
  54 H54           -1.3549    -5.0763    -1.2299 H       
  55 H55           -0.7839    -4.9095     0.4477 H       
  56 H56           -2.1682    -5.9661     0.0798 H       
@<TRIPOS>BOND
   1    1    2 1
   2    1    7 am
   3    1    6 1
   4    2    3 1
   5    2   34 1
   6    2   35 1
   7    3    4 1
   8    3   36 1
   9    3   37 1
  10    4    5 1
  11    4   15 am
  12    5    6 1
  13    5   23 1
  14    5   38 1
  15    6   39 1
  16    6   40 1
  17    7    8 1
  18    7   14 2
  19    8    9 2
  20    8   10 1
  21    9   12 1
  22   10   11 2
  23   11   12 1
  24   11   41 1
  25   12   13 1
  26   13   18 ar
  27   13   22 ar
  28   15   16 1
  29   15   17 2
  30   16   24 1
  31   16   27 2
  32   18   19 ar
  33   18   42 1
  34   19   20 ar
  35   19   43 1
  36   20   21 ar
  37   20   44 1
  38   21   22 ar
  39   21   33 1
  40   22   45 1
  41   23   46 1
  42   23   47 1
  43   23   48 1
  44   24   25 ar
  45   24   28 ar
  46   25   26 1
  47   25   31 ar
  48   26   27 1
  49   26   32 1
  50   27   49 1
  51   28   29 ar
  52   28   50 1
  53   29   30 ar
  54   29   51 1
  55   30   31 ar
  56   30   52 1
  57   31   53 1
  58   32   54 1
  59   32   55 1
  60   32   56 1

#	End of record

