#	Name: ASD01883044
#	Creating user name:	WinNT
#	Creation time:	15. 06. 2019 19:45

#	Modifying user name:	WinNT
#	Modification time:	15. 06. 2019 19:45

#	Program:	/corina/corina34_cracker 3.40 0067  02.08.2006

@<TRIPOS>MOLECULE
ASD01883044
  48   50    0    0    0
SMALL
NO_CHARGES


@<TRIPOS>ATOM
   1 N1            -0.0682     1.2328     1.3325 N.am    
   2 C2            -0.0482     0.0624     0.6683 C.2     
   3 C3            -1.2576    -0.6365     0.4314 C.2     
   4 C4            -2.4609    -0.0818     0.9022 C.2     
   5 C5            -2.4157     1.1466     1.5907 C.2     
   6 C6            -1.2300     1.7650     1.7917 C.2     
   7 O7             1.0094    -0.3957     0.2707 O.2     
   8 C8            -1.2547    -1.8827    -0.2740 C.1     
   9 N9            -1.2525    -2.8713    -0.8335 N.1     
  10 C10            1.1901     1.9443     1.5702 C.3     
  11 C11            1.4650     2.8973     0.4053 C.3     
  12 C12           -5.4367    -1.5851    -0.8229 C.ar    
  13 C13           -3.7475    -0.7733     0.6790 C.ar    
  14 C14           -4.4781    -1.2611     1.7652 C.ar    
  15 C15           -5.6772    -1.9048     1.5530 C.ar    
  16 C16           -6.1605    -2.0693     0.2603 C.ar    
  17 C17           -4.2366    -0.9407    -0.6189 C.ar    
  18 C18            2.7792     3.6405     0.6535 C.3     
  19 C19            3.0542     4.5934    -0.5114 C.3     
  20 O20           -7.3427    -2.7043     0.0552 O.3     
  21 C21           -8.4772    -1.9593     0.0702 C.ar    
  22 C22           -8.4193    -0.5724     0.1821 C.ar    
  23 C23           -9.5953     0.1494     0.1937 C.ar    
  24 N24          -10.7627    -0.4585     0.1010 N.ar    
  25 C25          -10.8585    -1.7704    -0.0065 C.ar    
  26 C26           -9.7290    -2.5620    -0.0317 C.ar    
  27 C27          -12.2186    -2.4112    -0.1092 C.3     
  28 H28           -3.3270     1.5921     1.9612 H       
  29 H29           -1.2077     2.7061     2.3211 H       
  30 H30            1.1158     2.5145     2.4963 H       
  31 H31            2.0048     1.2247     1.6510 H       
  32 H32            1.5394     2.3272    -0.5208 H       
  33 H33            0.6504     3.6170     0.3245 H       
  34 H34           -5.8134    -1.7188    -1.8262 H       
  35 H35           -4.1031    -1.1340     2.7700 H       
  36 H36           -6.2426    -2.2822     2.3923 H       
  37 H37           -3.6746    -0.5650    -1.4612 H       
  38 H38            2.7049     4.2106     1.5796 H       
  39 H39            3.5939     2.9208     0.7343 H       
  40 H40            2.2395     5.3131    -0.5922 H       
  41 H41            3.9904     5.1229    -0.3346 H       
  42 H42            3.1285     4.0233    -1.4374 H       
  43 H43           -7.4670    -0.0686     0.2591 H       
  44 H44           -9.5598     1.2254     0.2802 H       
  45 H45           -9.8144    -3.6350    -0.1201 H       
  46 H46          -12.5074    -2.4847    -1.1577 H       
  47 H47          -12.1844    -3.4086     0.3291 H       
  48 H48          -12.9479    -1.8037     0.4267 H       
@<TRIPOS>BOND
   1    1    2 am
   2    1   10 1
   3    1    6 1
   4    2    3 1
   5    2    7 2
   6    3    4 2
   7    3    8 1
   8    4    5 1
   9    4   13 1
  10    5    6 2
  11    5   28 1
  12    6   29 1
  13    8    9 3
  14   10   11 1
  15   10   30 1
  16   10   31 1
  17   11   18 1
  18   11   32 1
  19   11   33 1
  20   12   17 ar
  21   12   16 ar
  22   12   34 1
  23   13   14 ar
  24   13   17 ar
  25   14   15 ar
  26   14   35 1
  27   15   16 ar
  28   15   36 1
  29   16   20 1
  30   17   37 1
  31   18   19 1
  32   18   38 1
  33   18   39 1
  34   19   40 1
  35   19   41 1
  36   19   42 1
  37   20   21 1
  38   21   22 ar
  39   21   26 ar
  40   22   23 ar
  41   22   43 1
  42   23   24 ar
  43   23   44 1
  44   24   25 ar
  45   25   26 ar
  46   25   27 1
  47   26   45 1
  48   27   46 1
  49   27   47 1
  50   27   48 1

#	End of record

