#	Name: ASD02440077
#	Creating user name:	WinNT
#	Creation time:	15. 06. 2019 20:21

#	Modifying user name:	WinNT
#	Modification time:	15. 06. 2019 20:21

#	Program:	/corina/corina34_cracker 3.40 0067  02.08.2006

@<TRIPOS>MOLECULE
ASD02440077
  54   57    0    0    0
SMALL
NO_CHARGES


@<TRIPOS>ATOM
   1 N1             0.0354     1.4693    -0.6711 N.am    
   2 C2             0.0637     0.1760    -1.0129 C.2     
   3 S3             1.7469    -0.3587    -0.8654 S.3     
   4 C4             2.3522     1.2237    -0.3367 C.2     
   5 C5             1.1566     2.0740    -0.3154 C.2     
   6 O6            -0.8846    -0.5030    -1.3581 O.2     
   7 C7            -1.2273     2.2117    -0.6967 C.3     
   8 C8            -1.9006     2.1041     0.6473 C.ar    
   9 O9             1.1938     3.2475     0.0052 O.2     
  10 C10            3.6272     1.5680    -0.0242 C.2     
  11 C11            4.6678     0.5351     0.0570 C.ar    
  12 C12            6.0180     0.8866    -0.0639 C.ar    
  13 C13            6.9893    -0.0858     0.0135 C.ar    
  14 C14            6.6320    -1.4146     0.2112 C.ar    
  15 C15            5.2933    -1.7692     0.3318 C.ar    
  16 C16            4.3139    -0.8044     0.2614 C.ar    
  17 C17           -3.3977     0.9591     2.1246 C.ar    
  18 C18           -2.7776     1.0634     0.8968 C.ar    
  19 C19           -1.6345     3.0432     1.6280 C.ar    
  20 C20           -2.2473     2.9507     2.8604 C.ar    
  21 C21           -3.1378     1.9063     3.1170 C.ar    
  22 C22           -3.7985     1.8014     4.4341 C.2     
  23 O23           -4.5698     0.8895     4.6557 O.2     
  24 O24           -3.5456     2.7169     5.3894 O.3     
  25 O25            7.5941    -2.3696     0.2862 O.3     
  26 C26            7.1581    -3.7150     0.4905 C.3     
  27 C27            8.3739    -4.6420     0.5478 C.3     
  28 C28            7.9141    -6.0609     0.7632 C.ar    
  29 C29            7.6381    -6.8704    -0.3228 C.ar    
  30 C30            7.2163    -8.1719    -0.1252 C.ar    
  31 C31            7.0709    -8.6641     1.1583 C.ar    
  32 C32            7.3478    -7.8549     2.2443 C.ar    
  33 C33            7.7738    -6.5547     2.0467 C.ar    
  34 H34           -1.0281     3.2597    -0.9204 H       
  35 H35           -1.8790     1.7939    -1.4640 H       
  36 H36            3.8766     2.6017     0.1649 H       
  37 H37            6.2966     1.9187    -0.2178 H       
  38 H38            8.0309     0.1842    -0.0799 H       
  39 H39            5.0213    -2.8031     0.4853 H       
  40 H40            3.2742    -1.0809     0.3555 H       
  41 H41           -4.0826     0.1467     2.3178 H       
  42 H42           -2.9774     0.3312     0.1284 H       
  43 H43           -0.9453     3.8504     1.4282 H       
  44 H44           -2.0385     3.6842     3.6251 H       
  45 H45           -4.0015     2.6065     6.2350 H       
  46 H46            6.6071    -3.7800     1.4287 H       
  47 H47            6.5103    -4.0160    -0.3329 H       
  48 H48            8.9249    -4.5771    -0.3904 H       
  49 H49            9.0218    -4.3411     1.3711 H       
  50 H50            7.7517    -6.4859    -1.3256 H       
  51 H51            7.0000    -8.8041    -0.9737 H       
  52 H52            6.7407    -9.6807     1.3127 H       
  53 H53            7.2340    -8.2393     3.2471 H       
  54 H54            7.9937    -5.9236     2.8951 H       
@<TRIPOS>BOND
   1    1    2 am
   2    1    5 am
   3    1    7 1
   4    2    3 1
   5    2    6 2
   6    3    4 1
   7    4    5 1
   8    4   10 2
   9    5    9 2
  10    7    8 1
  11    7   34 1
  12    7   35 1
  13    8   19 ar
  14    8   18 ar
  15   10   11 1
  16   10   36 1
  17   11   12 ar
  18   11   16 ar
  19   12   13 ar
  20   12   37 1
  21   13   14 ar
  22   13   38 1
  23   14   15 ar
  24   14   25 1
  25   15   16 ar
  26   15   39 1
  27   16   40 1
  28   17   18 ar
  29   17   21 ar
  30   17   41 1
  31   18   42 1
  32   19   20 ar
  33   19   43 1
  34   20   21 ar
  35   20   44 1
  36   21   22 1
  37   22   23 2
  38   22   24 1
  39   24   45 1
  40   25   26 1
  41   26   27 1
  42   26   46 1
  43   26   47 1
  44   27   28 1
  45   27   48 1
  46   27   49 1
  47   28   29 ar
  48   28   33 ar
  49   29   30 ar
  50   29   50 1
  51   30   31 ar
  52   30   51 1
  53   31   32 ar
  54   31   52 1
  55   32   33 ar
  56   32   53 1
  57   33   54 1

#	End of record

