#	Name: ASD01208131
#	Creating user name:	WinNT
#	Creation time:	15. 06. 2019 19:09

#	Modifying user name:	WinNT
#	Modification time:	15. 06. 2019 19:09

#	Program:	/corina/corina34_cracker 3.40 0067  02.08.2006

@<TRIPOS>MOLECULE
ASD01208131
  70   74    0    0    0
SMALL
NO_CHARGES


@<TRIPOS>ATOM
   1 C1             0.2796     1.0107     0.2315 C.ar    
   2 C2            -0.0460    -0.3375     0.2594 C.ar    
   3 C3            -1.3583    -0.7427     0.0592 C.ar    
   4 C4            -2.3485     0.1983    -0.1689 C.ar    
   5 C5            -2.0252     1.5555    -0.1973 C.ar    
   6 C6            -0.7056     1.9588     0.0092 C.ar    
   7 C7            -3.0787     2.5634    -0.4410 C.2     
   8 C8            -2.8937     3.9264    -0.4940 C.2     
   9 N9            -4.4020     2.3015    -0.6580 N.pl3   
  10 C10           -5.0601     3.4944    -0.8430 C.2     
  11 C11           -4.1359     4.5118    -0.7438 C.2     
  12 O12            1.5661     1.4022     0.4280 O.3     
  13 C13            1.8518     2.7937     0.2721 C.3     
  14 C14            3.3275     2.9740    -0.0892 C.3     
  15 O15            4.1416     2.5409     1.0025 O.3     
  16 C16            1.5545     3.5253     1.5826 C.3     
  17 O17           -1.6718    -2.0647     0.0867 O.3     
  18 C18           -2.0716    -2.6477    -1.0691 C.ar    
  19 C19           -2.5081    -3.9742    -1.0669 C.ar    
  20 N20           -2.0532    -1.9566    -2.2007 N.ar    
  21 C21           -2.4427    -2.5243    -3.3277 C.ar    
  22 C22           -2.8732    -3.8502    -3.3270 C.ar    
  23 N23           -2.8964    -4.5413    -2.1883 N.ar    
  24 C24           -6.4974     3.6561    -1.1047 C.2     
  25 N25           -7.0642     4.8153    -1.2722 N.2     
  26 C26           -8.5068     4.6001    -1.4975 C.3     
  27 C27           -8.6905     3.1332    -1.0384 C.3     
  28 O28           -7.3525     2.6151    -1.1996 O.3     
  29 C29           -3.3097    -4.4873    -4.5883 C.2     
  30 N30           -3.5752    -5.8082    -4.6194 N.am    
  31 C31           -9.1380     3.0671     0.4232 C.3     
  32 C32           -4.2043    -6.4243    -5.7976 C.3     
  33 C33           -3.2381    -6.6731    -3.4785 C.3     
  34 C34           -2.4391    -7.8735    -3.9970 C.3     
  35 N35           -3.1922    -8.5308    -5.0735 N.3     
  36 C36           -3.3653    -7.6350    -6.2201 C.3     
  37 C37           -2.5431    -9.7841    -5.4807 C.3     
  38 O38           -3.4290    -3.8195    -5.5969 O.2     
  39 H39            0.7238    -1.0738     0.4370 H       
  40 H40           -3.3693    -0.1178    -0.3249 H       
  41 H41           -0.4512     3.0082    -0.0120 H       
  42 H42           -1.9570     4.4484    -0.3653 H       
  43 H43           -4.8091     1.4213    -0.6782 H       
  44 H44           -4.3361     5.5685    -0.8414 H       
  45 H45            1.2301     3.2054    -0.5230 H       
  46 H46            3.5602     2.3808    -0.9736 H       
  47 H47            3.5253     4.0259    -0.2950 H       
  48 H48            5.0915     2.6268     0.8431 H       
  49 H49            2.1762     3.1136     2.3776 H       
  50 H50            1.7724     4.5867     1.4636 H       
  51 H51            0.5032     3.3969     1.8400 H       
  52 H52           -2.5265    -4.5348    -0.1440 H       
  53 H53           -2.4282    -1.9615    -4.2494 H       
  54 H54           -9.1016     5.2771    -0.8843 H       
  55 H55           -8.7568     4.7119    -2.5525 H       
  56 H56           -9.3921     2.6059    -1.6849 H       
  57 H57          -10.0877     3.5900     0.5364 H       
  58 H58           -9.2594     2.0252     0.7193 H       
  59 H59           -8.3858     3.5392     1.0552 H       
  60 H60           -5.2141    -6.7484    -5.5461 H       
  61 H61           -4.2410    -5.7017    -6.6129 H       
  62 H62           -2.6363    -6.1150    -2.7612 H       
  63 H63           -4.1534    -7.0215    -3.0001 H       
  64 H64           -1.4780    -7.5320    -4.3816 H       
  65 H65           -2.2755    -8.5803    -3.1836 H       
  66 H66           -3.8784    -8.1657    -7.0221 H       
  67 H67           -2.3890    -7.3006    -6.5711 H       
  68 H68           -2.4910   -10.4602    -4.6274 H       
  69 H69           -3.1212   -10.2500    -6.2787 H       
  70 H70           -1.5355    -9.5719    -5.8383 H       
@<TRIPOS>BOND
   1    1    2 ar
   2    1   12 1
   3    1    6 ar
   4    2    3 ar
   5    2   39 1
   6    3    4 ar
   7    3   17 1
   8    4    5 ar
   9    4   40 1
  10    5    6 ar
  11    5    7 1
  12    6   41 1
  13    7    8 2
  14    7    9 1
  15    8   11 1
  16    8   42 1
  17    9   10 1
  18    9   43 1
  19   10   11 2
  20   10   24 1
  21   11   44 1
  22   12   13 1
  23   13   14 1
  24   13   16 1
  25   13   45 1
  26   14   15 1
  27   14   46 1
  28   14   47 1
  29   15   48 1
  30   16   49 1
  31   16   50 1
  32   16   51 1
  33   17   18 1
  34   18   19 ar
  35   18   20 ar
  36   19   23 ar
  37   19   52 1
  38   20   21 ar
  39   21   22 ar
  40   21   53 1
  41   22   23 ar
  42   22   29 1
  43   24   25 2
  44   24   28 1
  45   25   26 1
  46   26   27 1
  47   26   54 1
  48   26   55 1
  49   27   28 1
  50   27   31 1
  51   27   56 1
  52   29   30 am
  53   29   38 2
  54   30   32 1
  55   30   33 1
  56   31   57 1
  57   31   58 1
  58   31   59 1
  59   32   36 1
  60   32   60 1
  61   32   61 1
  62   33   34 1
  63   33   62 1
  64   33   63 1
  65   34   35 1
  66   34   64 1
  67   34   65 1
  68   35   36 1
  69   35   37 1
  70   36   66 1
  71   36   67 1
  72   37   68 1
  73   37   69 1
  74   37   70 1

#	End of record

