#	Name: ASD08390018
#	Creating user name:	WinNT
#	Creation time:	15. 06. 2019 21:19

#	Modifying user name:	WinNT
#	Modification time:	15. 06. 2019 21:19

#	Program:	/corina/corina34_cracker 3.40 0067  02.08.2006

@<TRIPOS>MOLECULE
ASD08390018
  52   54    0    0    0
SMALL
NO_CHARGES


@<TRIPOS>ATOM
   1 N1            -0.0128     1.1464    -0.3300 N.2     
   2 C2             0.1767    -0.3104    -0.3008 C.3     
   3 C3             1.6051    -0.4911     0.2501 C.3     
   4 N4             2.0602     0.8919     0.4699 N.pl3   
   5 C5             1.0493     1.7418     0.1021 C.2     
   6 C6             3.3694     1.2914     0.9922 C.3     
   7 C7             4.3943     1.2881    -0.1438 C.3     
   8 C8             4.0380     2.3794    -1.1553 C.3     
   9 C9             5.7675     1.5528     0.4178 C.2     
  10 O10            5.9116     1.7262     1.6049 O.2     
  11 O11            6.8305     1.5959    -0.4007 O.3     
  12 C12            8.1222     1.8554     0.2096 C.3     
  13 C13           -0.8444    -0.9653     0.6315 C.3     
  14 C14            1.5813    -1.2556     1.5486 C.ar    
  15 C15            1.8786    -2.6056     1.5614 C.ar    
  16 C16            1.8568    -3.3069     2.7524 C.ar    
  17 C17            1.5380    -2.6581     3.9308 C.ar    
  18 C18            1.2415    -1.3080     3.9181 C.ar    
  19 C19            1.2676    -0.6058     2.7277 C.ar    
  20 C20            0.0666    -0.8851    -1.6896 C.2     
  21 O21            0.7729    -1.8084    -2.0190 O.2     
  22 O22           -0.8161    -0.3713    -2.5606 O.3     
  23 C23            1.1648     3.2154     0.1922 C.ar    
  24 C24            0.6654     4.0207    -0.8309 C.ar    
  25 C25            0.7755     5.3933    -0.7410 C.ar    
  26 C26            1.3803     5.9707     0.3611 C.ar    
  27 C27            1.8777     5.1771     1.3792 C.ar    
  28 C28            1.7683     3.8037     1.3034 C.ar    
  29 H29            2.2387    -0.9929    -0.4812 H       
  30 H30            3.3009     2.2929     1.4169 H       
  31 H31            3.6817     0.5894     1.7653 H       
  32 H32            4.3851     0.3170    -0.6387 H       
  33 H33            4.1111     3.3561    -0.6769 H       
  34 H34            4.7292     2.3344    -1.9969 H       
  35 H35            3.0198     2.2251    -1.5126 H       
  36 H36            8.8930     1.8638    -0.5611 H       
  37 H37            8.0993     2.8229     0.7111 H       
  38 H38            8.3440     1.0743     0.9368 H       
  39 H39           -1.8513    -0.7681     0.2635 H       
  40 H40           -0.6724    -2.0412     0.6604 H       
  41 H41           -0.7371    -0.5531     1.6348 H       
  42 H42            2.1277    -3.1124     0.6408 H       
  43 H43            2.0884    -4.3617     2.7624 H       
  44 H44            1.5202    -3.2062     4.8612 H       
  45 H45            0.9921    -0.8012     4.8386 H       
  46 H46            1.0397     0.4499     2.7183 H       
  47 H47           -0.8503    -0.7731    -3.4395 H       
  48 H48            0.1936     3.5710    -1.6921 H       
  49 H49            0.3891     6.0180    -1.5327 H       
  50 H50            1.4649     7.0454     0.4267 H       
  51 H51            2.3489     5.6337     2.2371 H       
  52 H52            2.1530     3.1853     2.1009 H       
@<TRIPOS>BOND
   1    1    2 1
   2    1    5 2
   3    2   13 1
   4    2   20 1
   5    2    3 1
   6    3    4 1
   7    3   14 1
   8    3   29 1
   9    4    5 1
  10    4    6 1
  11    5   23 1
  12    6    7 1
  13    6   30 1
  14    6   31 1
  15    7    8 1
  16    7    9 1
  17    7   32 1
  18    8   33 1
  19    8   34 1
  20    8   35 1
  21    9   10 2
  22    9   11 1
  23   11   12 1
  24   12   36 1
  25   12   37 1
  26   12   38 1
  27   13   39 1
  28   13   40 1
  29   13   41 1
  30   14   15 ar
  31   14   19 ar
  32   15   16 ar
  33   15   42 1
  34   16   17 ar
  35   16   43 1
  36   17   18 ar
  37   17   44 1
  38   18   19 ar
  39   18   45 1
  40   19   46 1
  41   20   21 2
  42   20   22 1
  43   22   47 1
  44   23   24 ar
  45   23   28 ar
  46   24   25 ar
  47   24   48 1
  48   25   26 ar
  49   25   49 1
  50   26   27 ar
  51   26   50 1
  52   27   28 ar
  53   27   51 1
  54   28   52 1

#	End of record

