#	Name: ASD01914411
#	Creating user name:	WinNT
#	Creation time:	15. 06. 2019 20:03

#	Modifying user name:	WinNT
#	Modification time:	15. 06. 2019 20:03

#	Program:	/corina/corina34_cracker 3.40 0067  02.08.2006

@<TRIPOS>MOLECULE
ASD01914411
  37   38    0    0    0
SMALL
NO_CHARGES


@<TRIPOS>ATOM
   1 C1             0.1318     1.6533    -0.0342 C.ar    
   2 C2             0.0538     0.2834     0.1399 C.ar    
   3 C3             1.3607     2.2628    -0.2057 C.ar    
   4 C4             2.5160     1.5050    -0.2043 C.ar    
   5 C5             2.4423     0.1296    -0.0298 C.ar    
   6 C6             1.2050    -0.4806     0.1429 C.ar    
   7 N7             3.6089    -0.6398    -0.0283 N.am    
   8 C8             4.3715    -0.8115     1.2107 C.3     
   9 S9             4.1294    -1.3573    -1.4272 S.o2    
  10 C10            5.3137     0.3515     1.3860 C.2     
  11 N11            6.0521     0.4573     2.5085 N.am    
  12 O12            5.4076     1.1922     0.5169 O.2     
  13 C13            6.8442     1.5911     2.7206 C.ar    
  14 C14            5.2158    -0.1224    -2.1922 C.3     
  15 O15            4.8822    -2.4790    -0.9865 O.2     
  16 O16            2.9462    -1.5252    -2.1961 O.2     
  17 Cl17           1.1067    -2.1999     0.3620 Cl      
  18 C18            6.4137     2.8339     2.2751 C.ar    
  19 C19            7.1977     3.9512     2.4864 C.ar    
  20 C20            8.4103     3.8331     3.1404 C.ar    
  21 C21            8.8418     2.5970     3.5852 C.ar    
  22 C22            8.0599     1.4768     3.3821 C.ar    
  23 H23           -0.7699     2.2478    -0.0406 H       
  24 H24           -0.9079    -0.1895     0.2740 H       
  25 H25            1.4178     3.3327    -0.3414 H       
  26 H26            3.4755     1.9821    -0.3390 H       
  27 H27            3.6854    -0.8540     2.0566 H       
  28 H28            4.9434    -1.7380     1.1598 H       
  29 H29            6.0344    -0.2526     3.1693 H       
  30 H30            5.9552     0.2117    -1.4644 H       
  31 H31            5.7236    -0.5660    -3.0486 H       
  32 H32            4.6214     0.7292    -2.5233 H       
  33 H33            5.4670     2.9267     1.7636 H       
  34 H34            6.8634     4.9180     2.1402 H       
  35 H35            9.0218     4.7082     3.3038 H       
  36 H36            9.7894     2.5080     4.0957 H       
  37 H37            8.3975     0.5116     3.7298 H       
@<TRIPOS>BOND
   1    1    2 ar
   2    1    3 ar
   3    1   23 1
   4    2    6 ar
   5    2   24 1
   6    3    4 ar
   7    3   25 1
   8    4    5 ar
   9    4   26 1
  10    5    6 ar
  11    5    7 1
  12    6   17 1
  13    7    8 1
  14    7    9 am
  15    8   10 1
  16    8   27 1
  17    8   28 1
  18    9   14 1
  19    9   15 2
  20    9   16 2
  21   10   11 am
  22   10   12 2
  23   11   13 1
  24   11   29 1
  25   13   18 ar
  26   13   22 ar
  27   14   30 1
  28   14   31 1
  29   14   32 1
  30   18   19 ar
  31   18   33 1
  32   19   20 ar
  33   19   34 1
  34   20   21 ar
  35   20   35 1
  36   21   22 ar
  37   21   36 1
  38   22   37 1

#	End of record

