#	Name: ASD02408414
#	Creating user name:	WinNT
#	Creation time:	15. 06. 2019 20:21

#	Modifying user name:	WinNT
#	Modification time:	15. 06. 2019 20:21

#	Program:	/corina/corina34_cracker 3.40 0067  02.08.2006

@<TRIPOS>MOLECULE
ASD02408414
  40   43    0    0    0
SMALL
NO_CHARGES


@<TRIPOS>ATOM
   1 N1            -0.0163     1.3527     0.0095 N.am    
   2 C2             0.0021    -0.0041     0.0020 C.2     
   3 N3             1.1021    -0.6986    -0.0118 N.2     
   4 C4             2.3094    -0.1135    -0.0202 C.2     
   5 C5             2.3912     1.2882    -0.0139 C.2     
   6 C6             1.1433     2.0510     0.0022 C.2     
   7 N7             3.5893    -0.5767    -0.0346 N.pl3   
   8 N8             4.4547     0.5245    -0.0372 N.2     
   9 C9             3.7573     1.6273    -0.0251 C.2     
  10 C10           -1.3127    -0.7406     0.0107 C.3     
  11 C11           -1.0527    -2.2483     0.0001 C.3     
  12 C12            3.9745    -1.9233    -0.0446 C.ar    
  13 C13            5.1058    -2.3178    -0.7467 C.ar    
  14 C14            5.4843    -3.6463    -0.7555 C.ar    
  15 C15            4.7382    -4.5842    -0.0667 C.ar    
  16 C16            3.6089    -4.1949     0.6350 C.ar    
  17 C17            3.2292    -2.8650     0.6521 C.ar    
  18 O18            1.1474     3.2694     0.0079 O.2     
  19 C19           -2.3811    -3.0132     0.1347 C.3     
  20 C20           -2.5262    -3.8719    -1.1386 C.3     
  21 C21           -1.0730    -4.0503    -1.6441 C.3     
  22 C22           -0.4369    -2.6689    -1.3504 C.3     
  23 F23            2.8813    -5.1137     1.3070 F       
  24 H24           -0.8640     1.8242     0.0161 H       
  25 H25            4.1596     2.6295    -0.0243 H       
  26 H26           -1.8722    -0.4746     0.9075 H       
  27 H27           -1.8893    -0.4651    -0.8724 H       
  28 H28           -0.3827    -2.5171     0.8167 H       
  29 H29            5.6893    -1.5863    -1.2859 H       
  30 H30            6.3642    -3.9527    -1.3017 H       
  31 H31            5.0360    -5.6223    -0.0759 H       
  32 H32            2.3491    -2.5610     1.1993 H       
  33 H33           -2.3554    -3.6538     1.0162 H       
  34 H34           -3.2110    -2.3102     0.2076 H       
  35 H35           -2.9679    -4.8389    -0.8983 H       
  36 H36           -3.1279    -3.3510    -1.8835 H       
  37 H37           -0.5639    -4.8364    -1.0865 H       
  38 H38           -1.0592    -4.2625    -2.7131 H       
  39 H39           -0.7013    -1.9538    -2.1294 H       
  40 H40            0.6460    -2.7580    -1.2646 H       
@<TRIPOS>BOND
   1    1    2 1
   2    1    6 am
   3    1   24 1
   4    2    3 2
   5    2   10 1
   6    3    4 1
   7    4    5 2
   8    4    7 1
   9    5    6 1
  10    5    9 1
  11    6   18 2
  12    7    8 1
  13    7   12 1
  14    8    9 2
  15    9   25 1
  16   10   11 1
  17   10   26 1
  18   10   27 1
  19   11   19 1
  20   11   22 1
  21   11   28 1
  22   12   13 ar
  23   12   17 ar
  24   13   14 ar
  25   13   29 1
  26   14   15 ar
  27   14   30 1
  28   15   16 ar
  29   15   31 1
  30   16   17 ar
  31   16   23 1
  32   17   32 1
  33   19   20 1
  34   19   33 1
  35   19   34 1
  36   20   21 1
  37   20   35 1
  38   20   36 1
  39   21   22 1
  40   21   37 1
  41   21   38 1
  42   22   39 1
  43   22   40 1

#	End of record

