#	Name: ASD02030332
#	Creating user name:	WinNT
#	Creation time:	15. 06. 2019 20:15

#	Modifying user name:	WinNT
#	Modification time:	15. 06. 2019 20:15

#	Program:	/corina/corina34_cracker 3.40 0067  02.08.2006

@<TRIPOS>MOLECULE
ASD02030332
  43   43    0    0    0
SMALL
NO_CHARGES


@<TRIPOS>ATOM
   1 C1            -0.4797     0.0748    -2.9372 C.2     
   2 C2            -0.3482    -0.9068    -1.8013 C.3     
   3 O3             0.5099     0.5215    -3.4673 O.2     
   4 O4            -1.6963     0.4485    -3.3638 O.3     
   5 N5             1.0669    -1.0395    -1.4302 N.3     
   6 C6             1.3960    -0.1724    -0.2910 C.3     
   7 C7             0.9070     1.2494    -0.5742 C.3     
   8 C8             0.7122    -0.7053     0.9697 C.3     
   9 O9            -0.5217     1.2648    -0.6032 O.3     
  10 C10           -1.0866     2.5723    -0.7182 C.3     
  11 C11            2.8541    -0.1588    -0.0898 C.1     
  12 N12            3.9794    -0.1483     0.0654 N.1     
  13 C13            1.4065    -2.4393    -1.1417 C.3     
  14 C14            2.9026    -2.6134    -1.1895 C.ar    
  15 C15            3.6336    -2.6361    -0.0164 C.ar    
  16 C16            5.0060    -2.7957    -0.0602 C.ar    
  17 C17            5.6474    -2.9331    -1.2771 C.ar    
  18 C18            4.9163    -2.9113    -2.4501 C.ar    
  19 C19            3.5434    -2.7560    -2.4060 C.ar    
  20 C20           -1.7486     1.3326    -4.5144 C.3     
  21 C21           -3.1985     1.7464    -4.7742 C.3     
  22 H22           -0.9167    -0.5478    -0.9433 H       
  23 H23           -0.7346    -1.8771    -2.1130 H       
  24 H24            1.2617     1.9185     0.2097 H       
  25 H25            1.2936     1.5814    -1.5377 H       
  26 H26            1.1520    -1.6642     1.2439 H       
  27 H27            0.8503     0.0043     1.7855 H       
  28 H28           -0.3528    -0.8356     0.7779 H       
  29 H29           -0.8393     2.9905    -1.6940 H       
  30 H30           -2.1698     2.5106    -0.6133 H       
  31 H31           -0.6816     3.2133     0.0649 H       
  32 H32            1.0413    -2.7047    -0.1496 H       
  33 H33            0.9415    -3.0866    -1.8852 H       
  34 H34            3.1326    -2.5287     0.9343 H       
  35 H35            5.5772    -2.8127     0.8562 H       
  36 H36            6.7197    -3.0571    -1.3113 H       
  37 H37            5.4174    -3.0183    -3.4008 H       
  38 H38            2.9718    -2.7427    -3.3222 H       
  39 H39           -1.1471     2.2202    -4.3182 H       
  40 H40           -1.3564     0.8140    -5.3892 H       
  41 H41           -3.2378     2.4101    -5.6379 H       
  42 H42           -3.8000     0.8588    -4.9704 H       
  43 H43           -3.5907     2.2650    -3.8994 H       
@<TRIPOS>BOND
   1    1    2 1
   2    1    3 2
   3    1    4 1
   4    2    5 1
   5    2   22 1
   6    2   23 1
   7    4   20 1
   8    5    6 1
   9    5   13 1
  10    6    7 1
  11    6    8 1
  12    6   11 1
  13    7    9 1
  14    7   24 1
  15    7   25 1
  16    8   26 1
  17    8   27 1
  18    8   28 1
  19    9   10 1
  20   10   29 1
  21   10   30 1
  22   10   31 1
  23   11   12 3
  24   13   14 1
  25   13   32 1
  26   13   33 1
  27   14   15 ar
  28   14   19 ar
  29   15   16 ar
  30   15   34 1
  31   16   17 ar
  32   16   35 1
  33   17   18 ar
  34   17   36 1
  35   18   19 ar
  36   18   37 1
  37   19   38 1
  38   20   21 1
  39   20   39 1
  40   20   40 1
  41   21   41 1
  42   21   42 1
  43   21   43 1

#	End of record

