#	Name: ASD01148521
#	Creating user name:	WinNT
#	Creation time:	15. 06. 2019 19:02

#	Modifying user name:	WinNT
#	Modification time:	15. 06. 2019 19:02

#	Program:	/corina/corina34_cracker 3.40 0067  02.08.2006

@<TRIPOS>MOLECULE
ASD01148521
  56   59    0    0    0
SMALL
NO_CHARGES


@<TRIPOS>ATOM
   1 C1            -0.0180     1.4357     0.0451 C.ar    
   2 C2            -0.0166     0.0527     0.0405 C.ar    
   3 C3             1.1837    -0.6377     0.0176 C.ar    
   4 C4             2.3796     0.0567    -0.0008 C.ar    
   5 C5             2.3764     1.4392     0.0038 C.ar    
   6 C6             1.1784     2.1282     0.0267 C.ar    
   7 C7             3.6798     2.1954    -0.0162 C.3     
   8 O8             4.6902     1.4630    -0.7388 O.3     
   9 C9             3.5589     3.4850    -0.8627 C.3     
  10 C10            4.0453     3.0315    -2.2260 C.2     
  11 N11            4.6592     1.9034    -2.0820 N.2     
  12 C12            3.8508     3.7524    -3.4957 C.ar    
  13 C13            4.3739     3.1996    -4.7426 C.ar    
  14 C14            3.1643     4.9585    -3.5160 C.ar    
  15 C15            2.9671     5.6568    -4.6942 C.ar    
  16 C16            3.4472     5.1812    -5.9065 C.ar    
  17 C17            4.1723     3.9138    -5.9474 C.ar    
  18 C18            3.2216     5.9474    -7.1458 C.2     
  19 O19            3.7335     5.5837    -8.1872 O.2     
  20 N20            2.4481     7.0509    -7.1245 N.am    
  21 C21            4.6739     3.3956    -7.1481 C.ar    
  22 C22            5.0672     1.9828    -4.7703 C.ar    
  23 C23            4.1463     2.5144     1.4056 C.3     
  24 F24            4.3128     1.3232     2.1201 F       
  25 F25            5.3641     3.2012     1.3537 F       
  26 F26            3.1887     3.3107     2.0429 F       
  27 Cl27           1.1872    -2.3736     0.0124 Cl      
  28 Cl28          -1.5186    -0.8174     0.0642 Cl      
  29 C29            2.2241     7.8122    -8.3560 C.3     
  30 C30            1.3311     8.9902    -8.0628 C.2     
  31 N31            0.9870     9.8378    -9.0526 N.am    
  32 O32            0.9222     9.1756    -6.9361 O.2     
  33 C33            0.1189    10.9830    -8.7676 C.3     
  34 C34           -0.1151    11.7781   -10.0537 C.3     
  35 F35           -0.7262    10.9553   -11.0059 F       
  36 F36           -0.9440    12.8717    -9.7815 F       
  37 F37            1.1110    12.2342   -10.5495 F       
  38 C38            5.5382     1.5032    -5.9563 C.ar    
  39 C39            5.3446     2.2086    -7.1410 C.ar    
  40 H40           -0.9538     1.9748     0.0584 H       
  41 H41            3.3161    -0.4810    -0.0183 H       
  42 H42            1.1770     3.2082     0.0302 H       
  43 H43            2.5225     3.8190    -0.9131 H       
  44 H44            4.2008     4.2708    -0.4645 H       
  45 H45            2.7753     5.3606    -2.5922 H       
  46 H46            2.4275     6.5920    -4.6700 H       
  47 H47            2.0398     7.3410    -6.2939 H       
  48 H48            4.5300     3.9328    -8.0739 H       
  49 H49            5.2281     1.4283    -3.8576 H       
  50 H50            3.1793     8.1676    -8.7423 H       
  51 H51            1.7479     7.1711    -9.0979 H       
  52 H52            1.3140     9.6895    -9.9537 H       
  53 H53           -0.8363    10.6275    -8.3812 H       
  54 H54            0.5951    11.6240    -8.0257 H       
  55 H55            6.0726     0.5649    -5.9766 H       
  56 H56            5.7310     1.8099    -8.0673 H       
@<TRIPOS>BOND
   1    1    2 ar
   2    1    6 ar
   3    1   40 1
   4    2    3 ar
   5    2   28 1
   6    3    4 ar
   7    3   27 1
   8    4    5 ar
   9    4   41 1
  10    5    6 ar
  11    5    7 1
  12    6   42 1
  13    7    8 1
  14    7    9 1
  15    7   23 1
  16    8   11 1
  17    9   10 1
  18    9   43 1
  19    9   44 1
  20   10   11 2
  21   10   12 1
  22   12   13 ar
  23   12   14 ar
  24   13   22 ar
  25   13   17 ar
  26   14   15 ar
  27   14   45 1
  28   15   16 ar
  29   15   46 1
  30   16   17 ar
  31   16   18 1
  32   17   21 ar
  33   18   19 2
  34   18   20 am
  35   20   29 1
  36   20   47 1
  37   21   39 ar
  38   21   48 1
  39   22   38 ar
  40   22   49 1
  41   23   24 1
  42   23   25 1
  43   23   26 1
  44   29   30 1
  45   29   50 1
  46   29   51 1
  47   30   32 2
  48   30   31 am
  49   31   33 1
  50   31   52 1
  51   33   34 1
  52   33   53 1
  53   33   54 1
  54   34   35 1
  55   34   36 1
  56   34   37 1
  57   38   39 ar
  58   38   55 1
  59   39   56 1

#	End of record

