#	Name: ASD02030714
#	Creating user name:	WinNT
#	Creation time:	15. 06. 2019 20:15

#	Modifying user name:	WinNT
#	Modification time:	15. 06. 2019 20:15

#	Program:	/corina/corina34_cracker 3.40 0067  02.08.2006

@<TRIPOS>MOLECULE
ASD02030714
  39   41    0    0    0
SMALL
NO_CHARGES


@<TRIPOS>ATOM
   1 N1            -1.2782     0.1837    -3.5967 N.2     
   2 N2            -1.1629    -1.1264    -3.1170 N.am    
   3 C3            -0.0348    -1.8341    -3.3031 C.2     
   4 N4             1.0173    -1.3062    -3.9560 N.am    
   5 C5             0.9520    -0.0470    -4.4361 C.2     
   6 C6            -0.2793     0.7322    -4.2356 C.2     
   7 O7             0.0362    -2.9699    -2.8741 O.2     
   8 O8             1.8991     0.4377    -5.0267 O.2     
   9 C9            -2.2872    -1.7349    -2.4014 C.3     
  10 C10           -2.1568    -1.4440    -0.9050 C.3     
  11 C11           -3.3133    -2.0699    -0.1690 C.ar    
  12 C12           -3.2094    -3.3622     0.3084 C.ar    
  13 C13           -4.2745    -3.9378     0.9859 C.ar    
  14 C14           -5.4418    -3.2134     1.1823 C.ar    
  15 C15           -5.5404    -1.9219     0.7030 C.ar    
  16 C16           -4.4752    -1.3484     0.0329 C.ar    
  17 O17           -4.1750    -5.2089     1.4561 O.3     
  18 C18           -2.9785    -5.8416     1.3362 C.ar    
  19 C19           -2.0256    -5.7219     2.3378 C.ar    
  20 C20           -0.8102    -6.3665     2.2137 C.ar    
  21 C21           -0.5425    -7.1301     1.0925 C.ar    
  22 C22           -1.4903    -7.2511     0.0930 C.ar    
  23 C23           -2.7095    -6.6132     0.2148 C.ar    
  24 O24           -0.3764     2.0025    -4.7075 O.3     
  25 H25            1.8232    -1.8313    -4.0811 H       
  26 H26           -3.2230    -1.3170    -2.7726 H       
  27 H27           -2.2807    -2.8126    -2.5640 H       
  28 H28           -1.2210    -1.8618    -0.5338 H       
  29 H29           -2.1632    -0.3662    -0.7425 H       
  30 H30           -2.3000    -3.9240     0.1540 H       
  31 H31           -6.2725    -3.6593     1.7091 H       
  32 H32           -6.4486    -1.3577     0.8555 H       
  33 H33           -4.5526    -0.3367    -0.3369 H       
  34 H34           -2.2339    -5.1249     3.2134 H       
  35 H35           -0.0682    -6.2736     2.9929 H       
  36 H36            0.4086    -7.6327     0.9971 H       
  37 H37           -1.2787    -7.8479    -0.7819 H       
  38 H38           -3.4511    -6.7114    -0.5642 H       
  39 H39           -1.2258     2.4266    -4.5235 H       
@<TRIPOS>BOND
   1    1    2 1
   2    1    6 2
   3    2    3 am
   4    2    9 1
   5    3    4 am
   6    3    7 2
   7    4    5 am
   8    4   25 1
   9    5    6 1
  10    5    8 2
  11    6   24 1
  12    9   10 1
  13    9   26 1
  14    9   27 1
  15   10   11 1
  16   10   28 1
  17   10   29 1
  18   11   12 ar
  19   11   16 ar
  20   12   13 ar
  21   12   30 1
  22   13   14 ar
  23   13   17 1
  24   14   15 ar
  25   14   31 1
  26   15   16 ar
  27   15   32 1
  28   16   33 1
  29   17   18 1
  30   18   19 ar
  31   18   23 ar
  32   19   20 ar
  33   19   34 1
  34   20   21 ar
  35   20   35 1
  36   21   22 ar
  37   21   36 1
  38   22   23 ar
  39   22   37 1
  40   23   38 1
  41   24   39 1

#	End of record

