#	Name: ASD08150709
#	Creating user name:	WinNT
#	Creation time:	15. 06. 2019 21:16

#	Modifying user name:	WinNT
#	Modification time:	15. 06. 2019 21:16

#	Program:	/corina/corina34_cracker 3.40 0067  02.08.2006

@<TRIPOS>MOLECULE
ASD08150709
  35   37    0    0    0
SMALL
NO_CHARGES


@<TRIPOS>ATOM
   1 C1            -0.0158     1.3168     0.0093 C.2     
   2 N2             0.0021    -0.0041     0.0020 N.2     
   3 C3             1.1387    -0.6846    -0.0125 C.2     
   4 C4             2.3424     0.0131    -0.0203 C.2     
   5 C5             2.3160     1.4197    -0.0125 C.2     
   6 N6             1.1169     2.0725     0.0025 N.am    
   7 S7            -1.3641     2.4676     0.0209 S.3     
   8 C8             0.9183     3.4311     0.0113 C.2     
   9 C9            -0.3179     3.8980     0.0239 C.2     
  10 O10            3.3590     2.0528    -0.0187 O.2     
  11 C11            3.6328    -0.7145    -0.0361 C.ar    
  12 C12            4.4827    -0.6087    -1.1367 C.ar    
  13 C13            5.6833    -1.2888    -1.1456 C.ar    
  14 C14            6.0446    -2.0743    -0.0656 C.ar    
  15 C15            5.2057    -2.1831     1.0291 C.ar    
  16 C16            4.0051    -1.5033     1.0521 C.ar    
  17 C17            2.0925     4.3757     0.0053 C.3     
  18 C18            1.1279    -2.1915    -0.0200 C.3     
  19 C19            0.5275    -2.7038     1.2907 C.3     
  20 N20            0.3190    -2.6698    -1.1491 N.3     
  21 H21           -0.6257     4.9332     0.0300 H       
  22 H22            4.2016     0.0039    -1.9806 H       
  23 H23            6.3422    -1.2080    -1.9975 H       
  24 H24            6.9851    -2.6050    -0.0773 H       
  25 H25            5.4931    -2.7978     1.8693 H       
  26 H26            3.3531    -1.5854     1.9091 H       
  27 H27            2.3661     4.6087    -1.0238 H       
  28 H28            1.8226     5.2942     0.5263 H       
  29 H29            2.9382     3.9073     0.5089 H       
  30 H30            2.1481    -2.5617    -0.1214 H       
  31 H31            1.1277    -2.3489     2.1285 H       
  32 H32           -0.4928    -2.3337     1.3921 H       
  33 H33            0.5197    -3.7937     1.2853 H       
  34 H34            0.6571    -2.2924    -2.0216 H       
  35 H35            0.2961    -3.6782    -1.1760 H       
@<TRIPOS>BOND
   1    1    2 2
   2    1    6 1
   3    1    7 1
   4    2    3 1
   5    3    4 2
   6    3   18 1
   7    4    5 1
   8    4   11 1
   9    5    6 am
  10    5   10 2
  11    6    8 1
  12    7    9 1
  13    8    9 2
  14    8   17 1
  15    9   21 1
  16   11   12 ar
  17   11   16 ar
  18   12   13 ar
  19   12   22 1
  20   13   14 ar
  21   13   23 1
  22   14   15 ar
  23   14   24 1
  24   15   16 ar
  25   15   25 1
  26   16   26 1
  27   17   27 1
  28   17   28 1
  29   17   29 1
  30   18   19 1
  31   18   20 1
  32   18   30 1
  33   19   31 1
  34   19   32 1
  35   19   33 1
  36   20   34 1
  37   20   35 1

#	End of record

