#	Name: ASD05513031
#	Creating user name:	WinNT
#	Creation time:	15. 06. 2019 21:01

#	Modifying user name:	WinNT
#	Modification time:	15. 06. 2019 21:01

#	Program:	/corina/corina34_cracker 3.40 0067  02.08.2006

@<TRIPOS>MOLECULE
ASD05513031
  39   42    0    0    0
SMALL
NO_CHARGES


@<TRIPOS>ATOM
   1 C1            -0.3087     1.0873    -0.6434 C.2     
   2 C2             0.0683     0.0350     0.3093 C.2     
   3 C3             1.1717    -0.7263     0.0799 C.2     
   4 C4             2.4863    -0.2774    -0.4233 C.ar    
   5 C5             3.2979    -1.4196    -0.4924 C.ar    
   6 N6             2.5718    -2.5299    -0.0676 N.am    
   7 C7             1.3204    -2.1911     0.2871 C.2     
   8 C8             2.9891     0.9674    -0.7985 C.ar    
   9 C9             4.2943     1.0733    -1.2403 C.ar    
  10 C10            5.0964    -0.0529    -1.3096 C.ar    
  11 C11            4.6071    -1.2908    -0.9390 C.ar    
  12 O12            0.4622    -2.9476     0.6964 O.2     
  13 O13            0.2795     1.1874    -1.7032 O.2     
  14 C14           -1.4070     2.0207    -0.3168 C.ar    
  15 Cl15           1.9805     2.3777    -0.7118 Cl      
  16 C16           -2.0943     1.9130     0.8943 C.ar    
  17 N17           -3.0728     2.7448     1.1848 N.ar    
  18 C18           -3.4416     3.7035     0.3566 C.ar    
  19 C19           -2.8107     3.8767    -0.8630 C.ar    
  20 C20           -1.7729     3.0328    -1.2145 C.ar    
  21 C21            3.0825    -3.8326    -0.0120 C.ar    
  22 C22            2.5893    -4.8103    -0.8660 C.ar    
  23 C23            3.0950    -6.0942    -0.8087 C.ar    
  24 C24            4.0912    -6.4067     0.0981 C.ar    
  25 C25            4.5841    -5.4354     0.9501 C.ar    
  26 C26            4.0872    -4.1480     0.8932 C.ar    
  27 H27           -0.5305    -0.1342     1.1920 H       
  28 H28            4.6887     2.0354    -1.5322 H       
  29 H29            6.1152     0.0371    -1.6564 H       
  30 H30            5.2438    -2.1611    -0.9983 H       
  31 H31           -1.8213     1.1407     1.5981 H       
  32 H32           -4.2495     4.3639     0.6350 H       
  33 H33           -3.1229     4.6654    -1.5316 H       
  34 H34           -1.2632     3.1455    -2.1599 H       
  35 H35            1.8108    -4.5671    -1.5739 H       
  36 H36            2.7119    -6.8550    -1.4725 H       
  37 H37            4.4848    -7.4115     0.1413 H       
  38 H38            5.3619    -5.6826     1.6575 H       
  39 H39            4.4726    -3.3899     1.5589 H       
@<TRIPOS>BOND
   1    1    2 1
   2    1   13 2
   3    1   14 1
   4    2    3 2
   5    2   27 1
   6    3    4 1
   7    3    7 1
   8    4    5 ar
   9    4    8 ar
  10    5    6 1
  11    5   11 ar
  12    6    7 am
  13    6   21 1
  14    7   12 2
  15    8    9 ar
  16    8   15 1
  17    9   10 ar
  18    9   28 1
  19   10   11 ar
  20   10   29 1
  21   11   30 1
  22   14   16 ar
  23   14   20 ar
  24   16   17 ar
  25   16   31 1
  26   17   18 ar
  27   18   19 ar
  28   18   32 1
  29   19   20 ar
  30   19   33 1
  31   20   34 1
  32   21   22 ar
  33   21   26 ar
  34   22   23 ar
  35   22   35 1
  36   23   24 ar
  37   23   36 1
  38   24   25 ar
  39   24   37 1
  40   25   26 ar
  41   25   38 1
  42   26   39 1

#	End of record

