#	Name: ASD02039440
#	Creating user name:	WinNT
#	Creation time:	15. 06. 2019 20:18

#	Modifying user name:	WinNT
#	Modification time:	15. 06. 2019 20:18

#	Program:	/corina/corina34_cracker 3.40 0067  02.08.2006

@<TRIPOS>MOLECULE
ASD02039440
  53   56    0    0    0
SMALL
NO_CHARGES


@<TRIPOS>ATOM
   1 C1            -0.1861     1.9414     0.1582 C.2     
   2 S2            -0.5275     0.2828     0.3902 S.3     
   3 C3             1.1986     2.5328     0.0947 C.3     
   4 N4             1.6262     2.9206     1.4411 N.am    
   5 C5             2.4606     2.0144     2.2341 C.3     
   6 C6             1.2520     4.1110     1.9504 C.2     
   7 C7             0.4966     5.0635     1.1182 C.2     
   8 C8             0.1596     6.3409     1.4586 C.2     
   9 N9             0.0141     4.8320    -0.1294 N.2     
  10 C10           -0.5973     5.9017    -0.5495 C.2     
  11 N11           -0.5261     6.8584     0.4123 N.pl3   
  12 O12            1.5379     4.3989     3.0970 O.2     
  13 C13           -1.0907     8.2078     0.3320 C.3     
  14 C14           -2.2561     0.6146     0.3165 C.2     
  15 C15           -2.4155     1.9395     0.1246 C.2     
  16 N16           -1.2782     2.6142     0.0397 N.2     
  17 C17           -3.7470     2.5844     0.0121 C.ar    
  18 C18           -4.9051     1.8342     0.2085 C.ar    
  19 C19           -6.1414     2.4367     0.1037 C.ar    
  20 C20           -6.2329     3.7887    -0.1970 C.ar    
  21 C21           -5.0814     4.5385    -0.3932 C.ar    
  22 C22           -3.8420     3.9429    -0.2845 C.ar    
  23 O23           -7.4526     4.3795    -0.3001 O.3     
  24 C24           -7.4738     5.7739    -0.6120 C.3     
  25 F25           -6.8483     5.9854    -1.8453 F       
  26 F26           -8.7992     6.2166    -0.6793 F       
  27 F27           -6.7947     6.4847     0.3833 F       
  28 C28            3.7795     2.7090     2.5869 C.3     
  29 C29            4.6108     1.7850     3.4806 C.3     
  30 O30            3.8604     1.4551     4.6512 O.3     
  31 C31            2.6395     0.7616     4.3854 C.3     
  32 C32            1.7290     1.6445     3.5280 C.3     
  33 H33            1.8913     1.7937    -0.3078 H       
  34 H34            1.1892     3.4113    -0.5506 H       
  35 H35            2.6665     1.1115     1.6592 H       
  36 H36            0.3945     6.8430     2.3855 H       
  37 H37           -1.0806     6.0118    -1.5090 H       
  38 H38           -2.1098     8.1989     0.7185 H       
  39 H39           -0.4832     8.8917     0.9248 H       
  40 H40           -1.0991     8.5369    -0.7071 H       
  41 H41           -3.0478    -0.1142     0.4087 H       
  42 H42           -4.8345     0.7821     0.4422 H       
  43 H43           -7.0392     1.8559     0.2554 H       
  44 H44           -5.1558     5.5902    -0.6274 H       
  45 H45           -2.9464     4.5268    -0.4373 H       
  46 H46            4.3325     2.9263     1.6731 H       
  47 H47            3.5712     3.6382     3.1173 H       
  48 H48            4.8530     0.8729     2.9350 H       
  49 H49            5.5318     2.2911     3.7699 H       
  50 H50            2.8559    -0.1638     3.8516 H       
  51 H51            2.1405     0.5305     5.3265 H       
  52 H52            1.4793     2.5522     4.0775 H       
  53 H53            0.8157     1.1005     3.2873 H       
@<TRIPOS>BOND
   1    1    2 1
   2    1    3 1
   3    1   16 2
   4    2   14 1
   5    3    4 1
   6    3   33 1
   7    3   34 1
   8    4    5 1
   9    4    6 am
  10    5   28 1
  11    5   32 1
  12    5   35 1
  13    6    7 1
  14    6   12 2
  15    7    8 2
  16    7    9 1
  17    8   11 1
  18    8   36 1
  19    9   10 2
  20   10   11 1
  21   10   37 1
  22   11   13 1
  23   13   38 1
  24   13   39 1
  25   13   40 1
  26   14   15 2
  27   14   41 1
  28   15   16 1
  29   15   17 1
  30   17   18 ar
  31   17   22 ar
  32   18   19 ar
  33   18   42 1
  34   19   20 ar
  35   19   43 1
  36   20   21 ar
  37   20   23 1
  38   21   22 ar
  39   21   44 1
  40   22   45 1
  41   23   24 1
  42   24   25 1
  43   24   26 1
  44   24   27 1
  45   28   29 1
  46   28   46 1
  47   28   47 1
  48   29   30 1
  49   29   48 1
  50   29   49 1
  51   30   31 1
  52   31   32 1
  53   31   50 1
  54   31   51 1
  55   32   52 1
  56   32   53 1

#	End of record

