#	Name: ASD09740009
#	Creating user name:	WinNT
#	Creation time:	15. 06. 2019 21:22

#	Modifying user name:	WinNT
#	Modification time:	15. 06. 2019 21:22

#	Program:	/corina/corina34_cracker 3.40 0067  02.08.2006

@<TRIPOS>MOLECULE
ASD09740009
  45   48    0    0    0
SMALL
NO_CHARGES


@<TRIPOS>ATOM
   1 N1            -0.3488     1.0288    -0.0390 N.2     
   2 O2            -0.2328    -0.1758     0.0407 O.3     
   3 C3             0.8184     1.5860    -0.2373 C.2     
   4 N4             1.7350     0.5970    -0.2805 N.2     
   5 C5             1.0563    -0.5213    -0.1026 C.2     
   6 C6             1.6095    -1.8906    -0.0677 C.ar    
   7 C7             2.9818    -2.0946    -0.2331 C.ar    
   8 C8             0.7619    -2.9819     0.1364 C.ar    
   9 C9             1.2787    -4.2577     0.1691 C.ar    
  10 C10            2.6481    -4.4606    -0.0013 C.ar    
  11 C11            3.4963    -3.3709    -0.2000 C.ar    
  12 C12            1.0848     3.0386    -0.3876 C.ar    
  13 C13            0.0353     3.9524    -0.3208 C.ar    
  14 C14            0.2886     5.3020    -0.4607 C.ar    
  15 C15            1.5817     5.7477    -0.6668 C.ar    
  16 C16            2.6274     4.8448    -0.7339 C.ar    
  17 C17            2.3859     3.4934    -0.5901 C.ar    
  18 S18            1.8979     7.4719    -0.8451 S.o2    
  19 O19            3.1174     7.5837    -1.5659 O.2     
  20 O20            0.6803     8.0601    -1.2817 O.2     
  21 N21            2.1924     8.0754     0.6686 N.am    
  22 C22            3.2035    -5.8350     0.0341 C.ar    
  23 C23            2.7513    -6.7959    -0.8689 C.ar    
  24 C24            3.2722    -8.0733    -0.8315 C.ar    
  25 C25            4.2412    -8.4010     0.0998 C.ar    
  26 C26            4.6935    -7.4517     0.9986 C.ar    
  27 C27            4.1840    -6.1695     0.9668 C.ar    
  28 C28            0.3645    -5.4353     0.3898 C.3     
  29 F29           -0.9244    -4.9766     0.6822 F       
  30 F30            0.3286    -6.2210    -0.7672 F       
  31 F31            0.8407    -6.2014     1.4591 F       
  32 H32            3.6385    -1.2512    -0.3872 H       
  33 H33           -0.2984    -2.8250     0.2687 H       
  34 H34            4.5565    -3.5290    -0.3319 H       
  35 H35           -0.9748     3.6054    -0.1602 H       
  36 H36           -0.5243     6.0112    -0.4095 H       
  37 H37            3.6351     5.1981    -0.8954 H       
  38 H38            3.2031     2.7893    -0.6426 H       
  39 H39            2.7848     8.8352     0.7810 H       
  40 H40            1.7725     7.6690     1.4429 H       
  41 H41            1.9945    -6.5413    -1.5961 H       
  42 H42            2.9224    -8.8187    -1.5303 H       
  43 H43            4.6460    -9.4019     0.1254 H       
  44 H44            5.4497    -7.7133     1.7240 H       
  45 H45            4.5378    -5.4292     1.6691 H       
@<TRIPOS>BOND
   1    1    2 1
   2    1    3 2
   3    2    5 1
   4    3    4 1
   5    3   12 1
   6    4    5 2
   7    5    6 1
   8    6    7 ar
   9    6    8 ar
  10    7   11 ar
  11    7   32 1
  12    8    9 ar
  13    8   33 1
  14    9   10 ar
  15    9   28 1
  16   10   11 ar
  17   10   22 1
  18   11   34 1
  19   12   13 ar
  20   12   17 ar
  21   13   14 ar
  22   13   35 1
  23   14   15 ar
  24   14   36 1
  25   15   16 ar
  26   15   18 1
  27   16   17 ar
  28   16   37 1
  29   17   38 1
  30   18   19 2
  31   18   20 2
  32   18   21 am
  33   21   39 1
  34   21   40 1
  35   22   23 ar
  36   22   27 ar
  37   23   24 ar
  38   23   41 1
  39   24   25 ar
  40   24   42 1
  41   25   26 ar
  42   25   43 1
  43   26   27 ar
  44   26   44 1
  45   27   45 1
  46   28   29 1
  47   28   30 1
  48   28   31 1

#	End of record

