#	Name: ASD08150330
#	Creating user name:	WinNT
#	Creation time:	15. 06. 2019 21:15

#	Modifying user name:	WinNT
#	Modification time:	15. 06. 2019 21:15

#	Program:	/corina/corina34_cracker 3.40 0067  02.08.2006

@<TRIPOS>MOLECULE
ASD08150330
  85   92    0    0    0
SMALL
NO_CHARGES


@<TRIPOS>ATOM
   1 N1            -0.2280     0.7419    -0.0487 N.am    
   2 C2             0.6528     1.0312    -1.0261 C.2     
   3 C3             1.8621     0.3168    -1.1452 C.2     
   4 C4             2.1565    -0.6786    -0.2704 C.2     
   5 C5             1.2323    -0.9853     0.7594 C.ar    
   6 C6             1.4886    -2.0076     1.6929 C.ar    
   7 N7             0.6342    -2.2883     2.6419 N.ar    
   8 C8            -0.5248    -1.6273     2.7827 C.ar    
   9 C9            -0.8654    -0.5826     1.8885 C.ar    
  10 C10            0.0373    -0.2546     0.8497 C.ar    
  11 C11           -2.0761     0.0995     2.0432 C.ar    
  12 C12           -2.9323    -0.2553     3.0732 C.ar    
  13 C13           -2.5881    -1.2899     3.9545 C.ar    
  14 C14           -1.4142    -1.9624     3.8169 C.ar    
  15 O15            0.4005     1.9227    -1.8187 O.2     
  16 C16           -4.2184     0.4630     3.2445 C.ar    
  17 C17           -1.4207     1.4703     0.0516 C.ar    
  18 C18           -1.4645     2.6292     0.8163 C.ar    
  19 C19           -2.6391     3.3467     0.9152 C.ar    
  20 C20           -3.7780     2.9100     0.2498 C.ar    
  21 C21           -3.7340     1.7513    -0.5148 C.ar    
  22 C22           -2.5574     1.0368    -0.6181 C.ar    
  23 N23           -4.9681     3.6366     0.3503 N.3     
  24 C24           -4.4838     1.6249     2.5024 C.ar    
  25 C25           -5.0388     4.3567     1.6281 C.3     
  26 C26           -6.4110     5.0203     1.7660 C.3     
  27 C27           -6.6231     5.9897     0.5999 C.3     
  28 C28           -6.4965     5.2238    -0.7199 C.3     
  29 C29           -5.1219     4.5543    -0.7857 C.3     
  30 C30           -7.9969     6.6017     0.6973 C.2     
  31 O31           -8.9537     6.0212     0.2300 O.2     
  32 N32           -8.1621     7.7939     1.3037 N.am    
  33 C33           -9.4719     8.4629     1.3094 C.3     
  34 N34           -5.6100     2.2788     2.6327 N.ar    
  35 C35           -6.5635     1.8737     3.4783 C.ar    
  36 C36           -6.3706     0.7089     4.2633 C.ar    
  37 C37           -5.1706    -0.0114     4.1352 C.ar    
  38 C38           -7.7666     2.5897     3.6049 C.ar    
  39 C39           -8.7224     2.1583     4.4725 C.ar    
  40 C40           -8.5306     1.0133     5.2434 C.ar    
  41 C41           -7.3793     0.2932     5.1490 C.ar    
  42 C42           -9.8158     8.8474     2.7523 C.3     
  43 N43           -8.7139     9.6344     3.3219 N.3     
  44 C44           -7.4771     8.8451     3.3939 C.3     
  45 C45           -7.0387     8.4576     1.9825 C.3     
  46 C46           -9.0755    10.1680     4.6419 C.3     
  47 C47           -4.9693     1.2771    -1.2362 C.3     
  48 F48           -4.7184     0.0314    -1.8214 F       
  49 F49           -6.0251     1.1605    -0.3258 F       
  50 F50           -5.3112     2.1994    -2.2311 F       
  51 H51            2.5566     0.5619    -1.9351 H       
  52 H52            3.0814    -1.2292    -0.3581 H       
  53 H53            2.4078    -2.5704     1.6237 H       
  54 H54           -2.3417     0.8971     1.3652 H       
  55 H55           -3.2643    -1.5563     4.7534 H       
  56 H56           -1.1651    -2.7570     4.5047 H       
  57 H57           -0.5793     2.9684     1.3338 H       
  58 H58           -2.6732     4.2475     1.5101 H       
  59 H59           -2.5220     0.1382    -1.2162 H       
  60 H60           -3.7408     1.9879     1.8077 H       
  61 H61           -4.8905     3.6552     2.4490 H       
  62 H62           -4.2615     5.1202     1.6581 H       
  63 H63           -7.1880     4.2561     1.7498 H       
  64 H64           -6.4575     5.5677     2.7074 H       
  65 H65           -5.8694     6.7763     0.6384 H       
  66 H66           -7.2749     4.4628    -0.7751 H       
  67 H67           -6.6042     5.9166    -1.5545 H       
  68 H68           -4.3442     5.3169    -0.7443 H       
  69 H69           -5.0340     3.9963    -1.7179 H       
  70 H70           -9.4275     9.3601     0.6920 H       
  71 H71          -10.2312     7.7845     0.9203 H       
  72 H72           -4.9918    -0.9028     4.7182 H       
  73 H73           -7.9318     3.4796     3.0158 H       
  74 H74           -9.6446     2.7127     4.5652 H       
  75 H75           -9.3052     0.6934     5.9246 H       
  76 H76           -7.2419    -0.5927     5.7513 H       
  77 H77          -10.7300     9.4410     2.7625 H       
  78 H78           -9.9617     7.9440     3.3446 H       
  79 H79           -6.6950     9.4371     3.8694 H       
  80 H80           -7.6555     7.9418     3.9772 H       
  81 H81           -6.1884     7.7779     2.0369 H       
  82 H82           -6.7603     9.3531     1.4268 H       
  83 H83           -9.3017     9.3432     5.3177 H       
  84 H84           -8.2422    10.7464     5.0407 H       
  85 H85           -9.9510    10.8103     4.5468 H       
@<TRIPOS>BOND
   1    1    2 am
   2    1   10 1
   3    1   17 1
   4    2    3 1
   5    2   15 2
   6    3    4 2
   7    3   51 1
   8    4    5 1
   9    4   52 1
  10    5    6 ar
  11    5   10 ar
  12    6    7 ar
  13    6   53 1
  14    7    8 ar
  15    8    9 ar
  16    8   14 ar
  17    9   10 ar
  18    9   11 ar
  19   11   12 ar
  20   11   54 1
  21   12   13 ar
  22   12   16 1
  23   13   14 ar
  24   13   55 1
  25   14   56 1
  26   16   24 ar
  27   16   37 ar
  28   17   18 ar
  29   17   22 ar
  30   18   19 ar
  31   18   57 1
  32   19   20 ar
  33   19   58 1
  34   20   21 ar
  35   20   23 1
  36   21   22 ar
  37   21   47 1
  38   22   59 1
  39   23   25 1
  40   23   29 1
  41   24   34 ar
  42   24   60 1
  43   25   26 1
  44   25   61 1
  45   25   62 1
  46   26   27 1
  47   26   63 1
  48   26   64 1
  49   27   28 1
  50   27   30 1
  51   27   65 1
  52   28   29 1
  53   28   66 1
  54   28   67 1
  55   29   68 1
  56   29   69 1
  57   30   31 2
  58   30   32 am
  59   32   33 1
  60   32   45 1
  61   33   42 1
  62   33   70 1
  63   33   71 1
  64   34   35 ar
  65   35   36 ar
  66   35   38 ar
  67   36   37 ar
  68   36   41 ar
  69   37   72 1
  70   38   39 ar
  71   38   73 1
  72   39   40 ar
  73   39   74 1
  74   40   41 ar
  75   40   75 1
  76   41   76 1
  77   42   43 1
  78   42   77 1
  79   42   78 1
  80   43   44 1
  81   43   46 1
  82   44   45 1
  83   44   79 1
  84   44   80 1
  85   45   81 1
  86   45   82 1
  87   46   83 1
  88   46   84 1
  89   46   85 1
  90   47   48 1
  91   47   49 1
  92   47   50 1

#	End of record

