#	Name: ASD03240405
#	Creating user name:	WinNT
#	Creation time:	15. 06. 2019 20:34

#	Modifying user name:	WinNT
#	Modification time:	15. 06. 2019 20:34

#	Program:	/corina/corina34_cracker 3.40 0067  02.08.2006

@<TRIPOS>MOLECULE
ASD03240405
  46   49    0    0    0
SMALL
NO_CHARGES


@<TRIPOS>ATOM
   1 C1            -0.1154     1.5911    -0.1313 C.ar    
   2 C2            -0.3331     0.2339     0.0136 C.ar    
   3 C3             2.7708     1.6808    -1.9517 C.ar    
   4 C4             1.8150     2.4901    -1.3648 C.ar    
   5 C5             1.2783     2.1488     0.0014 C.3     
   6 C6             3.2657     1.9889    -3.2028 C.ar    
   7 C7             2.8008     3.1173    -3.8745 C.ar    
   8 C8             1.8385     3.9292    -3.2786 C.ar    
   9 C9             1.3503     3.6120    -2.0271 C.ar    
  10 N10            1.2439     3.3607     0.8309 N.3     
  11 C11            3.3299     3.4538    -5.2203 C.2     
  12 C12            2.9650     4.5226    -5.9859 C.2     
  13 N13            3.6757     4.4661    -7.1303 N.pl3   
  14 N14            4.5020     3.3371    -7.0770 N.2     
  15 C15            4.3041     2.7313    -5.9362 C.2     
  16 C16            2.5956     3.9029     1.0275 C.3     
  17 C17           -1.6111    -0.2790    -0.1084 C.ar    
  18 C18           -2.6728     0.5661    -0.3756 C.ar    
  19 C19           -2.4547     1.9260    -0.5208 C.ar    
  20 C20           -1.1748     2.4367    -0.4037 C.ar    
  21 Cl21          -4.2777    -0.0774    -0.5294 Cl      
  22 Cl22          -3.7862     2.9881    -0.8568 Cl      
  23 C23            2.5087     5.2049     1.8272 C.3     
  24 N24            1.8572     4.9414     3.1179 N.3     
  25 C25            0.5055     4.3992     2.9213 C.3     
  26 C26            0.5924     3.0972     2.1215 C.3     
  27 H27            0.4958    -0.4264     0.2219 H       
  28 H28            3.1338     0.8086    -1.4282 H       
  29 H29            1.9237     1.4059     0.4701 H       
  30 H30            4.0122     1.3564    -3.6601 H       
  31 H31            1.4747     4.8052    -3.7951 H       
  32 H32            0.6039     4.2406    -1.5644 H       
  33 H33            2.2386     5.2772    -5.7228 H       
  34 H34            3.6233     5.0984    -7.8640 H       
  35 H35            4.7966     1.8296    -5.6034 H       
  36 H36            3.2014     3.1801     1.5740 H       
  37 H37            3.0523     4.1014     0.0579 H       
  38 H38           -1.7804    -1.3396     0.0046 H       
  39 H39           -1.0040     3.4971    -0.5168 H       
  40 H40            3.5124     5.5937     1.9992 H       
  41 H41            1.9257     5.9368     1.2683 H       
  42 H42            2.4162     4.3221     3.6854 H       
  43 H43            0.0488     4.2006     3.8909 H       
  44 H44           -0.1003     5.1220     2.3748 H       
  45 H45           -0.4113     2.7084     1.9495 H       
  46 H46            1.1754     2.3653     2.6805 H       
@<TRIPOS>BOND
   1    1    2 ar
   2    1    5 1
   3    1   20 ar
   4    2   17 ar
   5    2   27 1
   6    3    4 ar
   7    3    6 ar
   8    3   28 1
   9    4    5 1
  10    4    9 ar
  11    5   10 1
  12    5   29 1
  13    6    7 ar
  14    6   30 1
  15    7    8 ar
  16    7   11 1
  17    8    9 ar
  18    8   31 1
  19    9   32 1
  20   10   16 1
  21   10   26 1
  22   11   12 2
  23   11   15 1
  24   12   13 1
  25   12   33 1
  26   13   14 1
  27   13   34 1
  28   14   15 2
  29   15   35 1
  30   16   23 1
  31   16   36 1
  32   16   37 1
  33   17   18 ar
  34   17   38 1
  35   18   19 ar
  36   18   21 1
  37   19   20 ar
  38   19   22 1
  39   20   39 1
  40   23   24 1
  41   23   40 1
  42   23   41 1
  43   24   25 1
  44   24   42 1
  45   25   26 1
  46   25   43 1
  47   25   44 1
  48   26   45 1
  49   26   46 1

#	End of record

