#	Name: ASD01917079
#	Creating user name:	WinNT
#	Creation time:	15. 06. 2019 20:08

#	Modifying user name:	WinNT
#	Modification time:	15. 06. 2019 20:08

#	Program:	/corina/corina34_cracker 3.40 0067  02.08.2006

@<TRIPOS>MOLECULE
ASD01917079
  56   60    0    0    0
SMALL
NO_CHARGES


@<TRIPOS>ATOM
   1 C1            -0.0175     1.3091     0.0940 C.2     
   2 N2             0.0008     0.0201    -0.1687 N.2     
   3 N3            -1.3348    -0.4133    -0.1802 N.pl3   
   4 C4            -2.0929     0.6761     0.0844 C.2     
   5 N5            -1.2859     1.7022     0.2524 N.2     
   6 C6             1.1766     2.1840     0.2032 C.ar    
   7 C7             2.4521     1.6504     0.0218 C.ar    
   8 C8             1.0246     3.5379     0.4809 C.ar    
   9 C9             2.1510     4.3539     0.5816 C.ar    
  10 C10            3.4234     3.8063     0.4030 C.ar    
  11 C11           -1.8131    -1.7754    -0.4298 C.3     
  12 C12           -1.8497    -2.5406     0.8679 C.2     
  13 N13           -2.2602    -3.8243     0.8820 N.am    
  14 O14           -1.5098    -2.0014     1.8997 O.2     
  15 C15           -2.3036    -4.5893     2.1374 C.3     
  16 C16           -3.6904    -5.2274     2.2709 C.3     
  17 N17           -3.9873    -6.0039     1.0598 N.3     
  18 C18           -4.0488    -5.1390    -0.1260 C.3     
  19 C19           -2.6825    -4.4954    -0.3568 C.3     
  20 C20           -5.1587    -6.7260     1.2083 C.ar    
  21 N21           -5.5807    -7.4865     0.2089 N.ar    
  22 C22           -6.6960    -8.1893     0.3183 C.ar    
  23 C23           -7.4244    -8.1227     1.4956 C.ar    
  24 C24           -6.9543    -7.3172     2.5210 C.ar    
  25 N25           -5.8285    -6.6444     2.3485 N.ar    
  26 C26           -3.5697     0.7070     0.1752 C.ar    
  27 C27            3.5652     2.4619     0.1228 C.ar    
  28 C28           -4.2548     1.9142     0.0370 C.ar    
  29 C29           -5.6318     1.9364     0.1222 C.ar    
  30 C30           -6.3328     0.7647     0.3447 C.ar    
  31 C31           -5.6591    -0.4357     0.4832 C.ar    
  32 C32           -4.2827    -0.4719     0.3937 C.ar    
  33 C33            2.0036     5.7495     0.8668 C.1     
  34 N34            1.8866     6.8565     1.0930 N.1     
  35 H35            2.5700     0.5996    -0.1979 H       
  36 H36            0.0382     3.9560     0.6177 H       
  37 H37            4.2974     4.4361     0.4804 H       
  38 H38           -2.8152    -1.7361    -0.8568 H       
  39 H39           -1.1404    -2.2746    -1.1271 H       
  40 H40           -1.5422    -5.3690     2.1175 H       
  41 H41           -2.1254    -3.9209     2.9798 H       
  42 H42           -3.7053    -5.8869     3.1386 H       
  43 H43           -4.4400    -4.4458     2.3948 H       
  44 H44           -4.3236    -5.7344    -0.9966 H       
  45 H45           -4.7934    -4.3586     0.0312 H       
  46 H46           -2.7528    -3.7666    -1.1643 H       
  47 H47           -1.9547    -5.2643    -0.6161 H       
  48 H48           -7.0351    -8.8072    -0.5000 H       
  49 H49           -8.3387    -8.6858     1.6114 H       
  50 H50           -7.4984    -7.2430     3.4509 H       
  51 H51            4.5509     2.0423    -0.0143 H       
  52 H52           -3.7085     2.8297    -0.1361 H       
  53 H53           -6.1633     2.8704     0.0153 H       
  54 H54           -7.4105     0.7872     0.4110 H       
  55 H55           -6.2120    -1.3470     0.6574 H       
  56 H56           -3.7578    -1.4096     0.5020 H       
@<TRIPOS>BOND
   1    1    2 2
   2    1    6 1
   3    1    5 1
   4    2    3 1
   5    3    4 1
   6    3   11 1
   7    4    5 2
   8    4   26 1
   9    6    7 ar
  10    6    8 ar
  11    7   27 ar
  12    7   35 1
  13    8    9 ar
  14    8   36 1
  15    9   10 ar
  16    9   33 1
  17   10   27 ar
  18   10   37 1
  19   11   12 1
  20   11   38 1
  21   11   39 1
  22   12   13 am
  23   12   14 2
  24   13   15 1
  25   13   19 1
  26   15   16 1
  27   15   40 1
  28   15   41 1
  29   16   17 1
  30   16   42 1
  31   16   43 1
  32   17   18 1
  33   17   20 1
  34   18   19 1
  35   18   44 1
  36   18   45 1
  37   19   46 1
  38   19   47 1
  39   20   21 ar
  40   20   25 ar
  41   21   22 ar
  42   22   23 ar
  43   22   48 1
  44   23   24 ar
  45   23   49 1
  46   24   25 ar
  47   24   50 1
  48   26   28 ar
  49   26   32 ar
  50   27   51 1
  51   28   29 ar
  52   28   52 1
  53   29   30 ar
  54   29   53 1
  55   30   31 ar
  56   30   54 1
  57   31   32 ar
  58   31   55 1
  59   32   56 1
  60   33   34 3

#	End of record

