#	Name: ASD03082247
#	Creating user name:	WinNT
#	Creation time:	15. 06. 2019 20:27

#	Modifying user name:	WinNT
#	Modification time:	15. 06. 2019 20:27

#	Program:	/corina/corina34_cracker 3.40 0067  02.08.2006

@<TRIPOS>MOLECULE
ASD03082247
  54   57    0    0    0
SMALL
NO_CHARGES


@<TRIPOS>ATOM
   1 N1            -0.0067     1.4210     0.0829 N.pl3   
   2 N2            -0.0268     0.0207    -0.0202 N.2     
   3 C3             1.2070    -0.3939     0.1507 C.2     
   4 N4             1.9970     0.6623     0.3543 N.2     
   5 C5             1.2793     1.7677     0.3165 C.2     
   6 N6             1.6255    -1.7256     0.1241 N.pl3   
   7 C7             2.9824    -2.0353     0.2630 C.ar    
   8 C8             3.5051    -3.1642    -0.3551 C.ar    
   9 C9             4.8450    -3.4679    -0.2165 C.ar    
  10 C10            5.6675    -2.6483     0.5383 C.ar    
  11 C11            5.1488    -1.5226     1.1552 C.ar    
  12 C12            3.8103    -1.2115     1.0143 C.ar    
  13 C13            5.4127    -4.6925    -0.8868 C.3     
  14 F14            4.3974    -5.3547    -1.5853 F       
  15 F15            6.4203    -4.3109    -1.7791 F       
  16 F16            5.9473    -5.5487     0.0818 F       
  17 N17            3.6056     4.6456     0.4902 N.ar    
  18 C18            3.1464     3.4214     0.3308 C.ar    
  19 C19            1.7904     3.1435     0.4969 C.ar    
  20 C20            0.9185     4.1867     0.8367 C.ar    
  21 C21            1.4417     5.4541     0.9940 C.ar    
  22 C22            2.8077     5.6537     0.8113 C.ar    
  23 C23           -1.1509     2.3270    -0.0438 C.3     
  24 F24            6.9780    -2.9479     0.6732 F       
  25 C25           -1.8001     2.5080     1.3041 C.2     
  26 N26           -2.8795     3.3049     1.4307 N.am    
  27 O27           -1.3511     1.9364     2.2750 O.2     
  28 C28           -3.5106     3.4809     2.7410 C.3     
  29 C29           -3.4219     3.9953     0.2579 C.3     
  30 N30            3.3408     6.9257     0.9679 N.pl3   
  31 C31            2.4891     8.0253     1.4281 C.3     
  32 C32            2.9649     9.4522     1.1480 C.3     
  33 C33            3.0147     8.8948     2.5720 C.3     
  34 H34            0.9752    -2.4361     0.0094 H       
  35 H35            2.8639    -3.8040    -0.9432 H       
  36 H36            5.7920    -0.8848     1.7433 H       
  37 H37            3.4070    -0.3308     1.4920 H       
  38 H38            3.8272     2.6249     0.0689 H       
  39 H39           -0.1372     4.0034     0.9719 H       
  40 H40            0.7989     6.2818     1.2553 H       
  41 H41           -0.8099     3.2932    -0.4155 H       
  42 H42           -1.8738     1.9039    -0.7414 H       
  43 H43           -3.0528     4.3266     3.2541 H       
  44 H44           -4.5760     3.6694     2.6088 H       
  45 H45           -3.3725     2.5774     3.3350 H       
  46 H46           -2.8256     3.7444    -0.6194 H       
  47 H47           -4.4537     3.6830     0.0973 H       
  48 H48           -3.3898     5.0722     0.4231 H       
  49 H49            4.2772     7.0866     0.7725 H       
  50 H50            1.4163     7.8361     1.3912 H       
  51 H51            3.9115     9.5728     0.6214 H       
  52 H52            2.2050    10.2019     0.9273 H       
  53 H53            2.2876     9.2778     3.2881 H       
  54 H54            3.9941     8.6487     2.9822 H       
@<TRIPOS>BOND
   1    1    2 1
   2    1    5 1
   3    1   23 1
   4    2    3 2
   5    3    4 1
   6    3    6 1
   7    4    5 2
   8    5   19 1
   9    6    7 1
  10    6   34 1
  11    7    8 ar
  12    7   12 ar
  13    8    9 ar
  14    8   35 1
  15    9   10 ar
  16    9   13 1
  17   10   11 ar
  18   10   24 1
  19   11   12 ar
  20   11   36 1
  21   12   37 1
  22   13   14 1
  23   13   15 1
  24   13   16 1
  25   17   18 ar
  26   17   22 ar
  27   18   19 ar
  28   18   38 1
  29   19   20 ar
  30   20   21 ar
  31   20   39 1
  32   21   22 ar
  33   21   40 1
  34   22   30 1
  35   23   25 1
  36   23   41 1
  37   23   42 1
  38   25   26 am
  39   25   27 2
  40   26   28 1
  41   26   29 1
  42   28   43 1
  43   28   44 1
  44   28   45 1
  45   29   46 1
  46   29   47 1
  47   29   48 1
  48   30   31 1
  49   30   49 1
  50   31   32 1
  51   31   33 1
  52   31   50 1
  53   32   33 1
  54   32   51 1
  55   32   52 1
  56   33   53 1
  57   33   54 1

#	End of record

