#	Name: ASD02508329
#	Creating user name:	WinNT
#	Creation time:	15. 06. 2019 20:24

#	Modifying user name:	WinNT
#	Modification time:	15. 06. 2019 20:24

#	Program:	/corina/corina34_cracker 3.40 0067  02.08.2006

@<TRIPOS>MOLECULE
ASD02508329
  62   64    0    0    0
SMALL
NO_CHARGES


@<TRIPOS>ATOM
   1 C1            -0.1607     0.2539     0.0536 C.ar    
   2 C2             0.1545    -0.9839    -0.4919 C.ar    
   3 C3             1.4738    -1.2855    -0.8061 C.ar    
   4 C4             2.4670    -0.3543    -0.5754 C.ar    
   5 C5             2.1497     0.8772    -0.0317 C.ar    
   6 C6             0.8377     1.1807     0.2818 C.ar    
   7 S7             3.4203     2.0622     0.2616 S.o2    
   8 O8             3.2330     2.5308     1.5900 O.2     
   9 O9             4.6313     1.4725    -0.1910 O.2     
  10 C10            3.1084     3.4345    -0.7986 C.ar    
  11 C11            2.3159     4.4793    -0.3599 C.ar    
  12 C12            2.0696     5.5564    -1.1885 C.ar    
  13 C13            2.6192     5.5896    -2.4635 C.ar    
  14 C14            3.4150     4.5390    -2.9009 C.ar    
  15 C15            3.6614     3.4671    -2.0657 C.ar    
  16 N16           -0.8526    -1.9236    -0.7235 N.am    
  17 C17           -0.9000    -3.1564     0.0666 C.3     
  18 S18           -1.9929    -1.6443    -1.8914 S.o2    
  19 C19           -1.4486    -2.4571    -3.3569 C.ar    
  20 O20           -3.1707    -2.3197    -1.4718 O.2     
  21 O21           -1.9524    -0.2508    -2.1667 O.2     
  22 C22           -1.9033    -3.7288    -3.6515 C.ar    
  23 C23           -1.4762    -4.3665    -4.8012 C.ar    
  24 C24           -0.5948    -3.7322    -5.6566 C.ar    
  25 C25           -0.1408    -2.4600    -5.3625 C.ar    
  26 C26           -0.5713    -1.8207    -4.2150 C.ar    
  27 C27           -0.1284    -4.4277    -6.9095 C.3     
  28 C28            0.3512    -3.9908    -0.2146 C.3     
  29 N29            2.3712     6.6792    -3.3056 N.am    
  30 C30            2.2219     7.9133    -2.7847 C.2     
  31 C31            1.8425     9.0669    -3.6770 C.3     
  32 O32            2.3929     8.0953    -1.5979 O.2     
  33 C33           -0.9556    -2.8063     1.5550 C.3     
  34 C34            0.4968     2.5237     0.8745 C.3     
  35 H35           -1.1859     0.4932     0.2948 H       
  36 H36            1.7223    -2.2472    -1.2300 H       
  37 H37            3.4927    -0.5881    -0.8194 H       
  38 H38            1.8888     4.4528     0.6317 H       
  39 H39            1.4500     6.3717    -0.8455 H       
  40 H40            3.8438     4.5619    -3.8919 H       
  41 H41            4.2806     2.6499    -2.4051 H       
  42 H42           -1.7870    -3.7284    -0.2055 H       
  43 H43           -2.5919    -4.2244    -2.9832 H       
  44 H44           -1.8309    -5.3604    -5.0310 H       
  45 H45            0.5480    -1.9646    -6.0306 H       
  46 H46           -0.2166    -0.8268    -3.9852 H       
  47 H47           -0.8076    -4.1936    -7.7293 H       
  48 H48            0.8760    -4.0876    -7.1615 H       
  49 H49           -0.1164    -5.5050    -6.7440 H       
  50 H50            1.2307    -3.4625     0.1535 H       
  51 H51            0.2674    -4.9530     0.2906 H       
  52 H52            0.4470    -4.1515    -1.2885 H       
  53 H53            2.3067     6.5464    -4.2643 H       
  54 H54            1.7330     8.7127    -4.7021 H       
  55 H55            0.8988     9.4938    -3.3375 H       
  56 H56            2.6211     9.8286    -3.6370 H       
  57 H57           -1.7949    -2.1358     1.7394 H       
  58 H58           -1.0841    -3.7182     2.1381 H       
  59 H59           -0.0274    -2.3156     1.8477 H       
  60 H60            0.2774     3.2293     0.0732 H       
  61 H61           -0.3755     2.4248     1.5206 H       
  62 H62            1.3420     2.8882     1.4584 H       
@<TRIPOS>BOND
   1    1    2 ar
   2    1    6 ar
   3    1   35 1
   4    2    3 ar
   5    2   16 1
   6    3    4 ar
   7    3   36 1
   8    4    5 ar
   9    4   37 1
  10    5    6 ar
  11    5    7 1
  12    6   34 1
  13    7    8 2
  14    7    9 2
  15    7   10 1
  16   10   11 ar
  17   10   15 ar
  18   11   12 ar
  19   11   38 1
  20   12   13 ar
  21   12   39 1
  22   13   14 ar
  23   13   29 1
  24   14   15 ar
  25   14   40 1
  26   15   41 1
  27   16   17 1
  28   16   18 am
  29   17   28 1
  30   17   33 1
  31   17   42 1
  32   18   19 1
  33   18   20 2
  34   18   21 2
  35   19   22 ar
  36   19   26 ar
  37   22   23 ar
  38   22   43 1
  39   23   24 ar
  40   23   44 1
  41   24   25 ar
  42   24   27 1
  43   25   26 ar
  44   25   45 1
  45   26   46 1
  46   27   47 1
  47   27   48 1
  48   27   49 1
  49   28   50 1
  50   28   51 1
  51   28   52 1
  52   29   30 am
  53   29   53 1
  54   30   31 1
  55   30   32 2
  56   31   54 1
  57   31   55 1
  58   31   56 1
  59   33   57 1
  60   33   58 1
  61   33   59 1
  62   34   60 1
  63   34   61 1
  64   34   62 1

#	End of record

