#	Name: ASD05740017
#	Creating user name:	WinNT
#	Creation time:	15. 06. 2019 21:02

#	Modifying user name:	WinNT
#	Modification time:	15. 06. 2019 21:02

#	Program:	/corina/corina34_cracker 3.40 0067  02.08.2006

@<TRIPOS>MOLECULE
ASD05740017
  53   56    0    0    0
SMALL
NO_CHARGES


@<TRIPOS>ATOM
   1 C1            -0.4887     1.0129    -0.2243 C.2     
   2 C2             0.5079     3.1125    -0.2977 C.ar    
   3 C3             1.5190     5.2808    -0.2105 C.ar    
   4 C4             0.2589     5.8662    -0.3800 C.ar    
   5 C5            -0.8827     5.0543    -0.5143 C.ar    
   6 C6            -0.7463     3.6750    -0.4714 C.ar    
   7 C7             0.1037     7.3216    -0.4257 C.2     
   8 C8            -1.1454     7.8289    -0.5920 C.2     
   9 C9            -2.2462     6.9563    -0.7148 C.2     
  10 O10           -2.0966     5.6229    -0.6769 O.3     
  11 C11           -1.3542     9.3205    -0.6446 C.3     
  12 C12           -1.3686     9.7754    -2.0812 C.ar    
  13 C13           -0.2149    10.2504    -2.6759 C.ar    
  14 O14           -3.3608     7.4244    -0.8631 O.2     
  15 C15           -2.5026    10.1494    -4.1507 C.ar    
  16 C16           -1.3062    10.6184    -4.6729 C.ar    
  17 N17           -0.2153    10.6516    -3.9321 N.ar    
  18 O18            0.6403     1.7623    -0.2563 O.3     
  19 N19           -3.6569    10.1150    -4.9401 N.am    
  20 S20           -3.5419     9.7985    -6.5615 S.o2    
  21 O21           -4.8899     9.7756    -7.0105 O.2     
  22 O22           -2.6254    10.7712    -7.0443 O.2     
  23 C23            1.2973     8.2318    -0.2913 C.3     
  24 N24           -1.6890     1.4846    -0.1029 N.2     
  25 S25           -0.5363    -0.6918    -0.3455 S.3     
  26 C26           -2.2924    -0.6630    -0.2081 C.2     
  27 C27           -2.6775     0.6093    -0.0954 C.2     
  28 C28            1.6357     3.9219    -0.1709 C.ar    
  29 C29            2.9925     3.2920     0.0116 C.3     
  30 C30           -2.8138     8.1393    -6.6483 C.3     
  31 C31           -2.6549     7.7282    -8.1134 C.3     
  32 C32           -2.5385     9.7170    -2.8242 C.ar    
  33 F33           -3.6836     9.2528    -2.2778 F       
  34 H34            2.3958     5.9030    -0.1073 H       
  35 H35           -1.6148     3.0412    -0.5734 H       
  36 H36           -2.3053     9.5710    -0.1746 H       
  37 H37           -0.5438     9.8197    -0.1135 H       
  38 H38            0.7000    10.2939    -2.1036 H       
  39 H39           -1.2673    10.9595    -5.6969 H       
  40 H40           -4.5246    10.2765    -4.5378 H       
  41 H41            2.1991     7.6324    -0.1667 H       
  42 H42            1.3894     8.8448    -1.1879 H       
  43 H43            1.1666     8.8765     0.5778 H       
  44 H44           -2.9439    -1.5243    -0.2210 H       
  45 H45           -3.7131     0.8992     0.0035 H       
  46 H46            3.4479     3.1211    -0.9638 H       
  47 H47            3.6265     3.9579     0.5970 H       
  48 H48            2.8844     2.3413     0.5338 H       
  49 H49           -1.8370     8.1455    -6.1647 H       
  50 H50           -3.4662     7.4292    -6.1403 H       
  51 H51           -2.0024     8.4383    -8.6214 H       
  52 H52           -2.2173     6.7312    -8.1656 H       
  53 H53           -3.6317     7.7220    -8.5971 H       
@<TRIPOS>BOND
   1    1   25 1
   2    1   18 1
   3    1   24 2
   4    2   18 1
   5    2   28 ar
   6    2    6 ar
   7    3    4 ar
   8    3   28 ar
   9    3   34 1
  10    4    5 ar
  11    4    7 1
  12    5    6 ar
  13    5   10 1
  14    6   35 1
  15    7    8 2
  16    7   23 1
  17    8    9 1
  18    8   11 1
  19    9   10 1
  20    9   14 2
  21   11   12 1
  22   11   36 1
  23   11   37 1
  24   12   13 ar
  25   12   32 ar
  26   13   17 ar
  27   13   38 1
  28   15   16 ar
  29   15   19 1
  30   15   32 ar
  31   16   17 ar
  32   16   39 1
  33   19   20 am
  34   19   40 1
  35   20   21 2
  36   20   22 2
  37   20   30 1
  38   23   41 1
  39   23   42 1
  40   23   43 1
  41   24   27 1
  42   25   26 1
  43   26   27 2
  44   26   44 1
  45   27   45 1
  46   28   29 1
  47   29   46 1
  48   29   47 1
  49   29   48 1
  50   30   31 1
  51   30   49 1
  52   30   50 1
  53   31   51 1
  54   31   52 1
  55   31   53 1
  56   32   33 1

#	End of record

