#	Name: ASD01880271
#	Creating user name:	WinNT
#	Creation time:	15. 06. 2019 19:40

#	Modifying user name:	WinNT
#	Modification time:	15. 06. 2019 19:40

#	Program:	/corina/corina34_cracker 3.40 0067  02.08.2006

@<TRIPOS>MOLECULE
ASD01880271
  45   47    0    0    0
SMALL
NO_CHARGES


@<TRIPOS>ATOM
   1 C1            -0.0180     1.4798     0.0102 C.ar    
   2 C2             0.0021    -0.0041     0.0020 C.2     
   3 C3            -0.4771    -0.7020     1.0725 C.2     
   4 N4            -0.4626    -2.0582     1.0736 N.am    
   5 C5             0.0235    -2.7446     0.0227 C.2     
   6 C6             0.5262    -2.0618    -1.0989 C.2     
   7 C7             0.5116    -0.7001    -1.1154 C.2     
   8 O8             0.0284    -3.9649     0.0438 O.2     
   9 C9            -0.9824    -2.7857     2.2341 C.3     
  10 C10           -2.4763    -3.0535     2.0409 C.3     
  11 C11            1.1784     2.1943     0.0026 C.ar    
  12 C12            1.1565     3.5734     0.0097 C.ar    
  13 C13           -0.0556     4.2496     0.0249 C.ar    
  14 C14           -1.2490     3.5407     0.0330 C.ar    
  15 C15           -1.2335     2.1615     0.0196 C.ar    
  16 O16           -0.0740     5.6085     0.0324 O.3     
  17 C17           -1.3559     6.2399     0.0480 C.3     
  18 C18           -2.9921    -3.9198     3.1917 C.3     
  19 C19           -4.4861    -4.1876     2.9984 C.3     
  20 C20           -5.2443    -2.8589     2.9808 C.3     
  21 C21           -4.7285    -1.9925     1.8300 C.3     
  22 C22           -3.2345    -1.7247     2.0233 C.3     
  23 H23           -0.8708    -0.1700     1.9259 H       
  24 H24            0.9165    -2.6125    -1.9419 H       
  25 H25            0.8933    -0.1595    -1.9689 H       
  26 H26           -0.4535    -3.7334     2.3356 H       
  27 H27           -0.8337    -2.1885     3.1337 H       
  28 H28           -2.6329    -3.5738     1.0960 H       
  29 H29            2.1218     1.6687    -0.0085 H       
  30 H30            2.0834     4.1277     0.0039 H       
  31 H31           -2.1906     4.0695     0.0451 H       
  32 H32           -2.1623     1.6104     0.0259 H       
  33 H33           -1.9004     5.9347     0.9416 H       
  34 H34           -1.2278     7.3223     0.0525 H       
  35 H35           -1.9174     5.9442    -0.8383 H       
  36 H36           -2.4520    -4.8665     3.2042 H       
  37 H37           -2.8355    -3.3996     4.1366 H       
  38 H38           -4.6427    -4.7079     2.0535 H       
  39 H39           -4.8536    -4.8048     3.8183 H       
  40 H40           -6.3086    -3.0497     2.8431 H       
  41 H41           -5.0877    -2.3386     3.9257 H       
  42 H42           -4.8851    -2.5128     0.8851 H       
  43 H43           -5.2687    -1.0459     1.8175 H       
  44 H44           -3.0779    -1.2045     2.9682 H       
  45 H45           -2.8670    -1.1075     1.2034 H       
@<TRIPOS>BOND
   1    1    2 1
   2    1   11 ar
   3    1   15 ar
   4    2    3 2
   5    2    7 1
   6    3    4 1
   7    3   23 1
   8    4    5 am
   9    4    9 1
  10    5    6 1
  11    5    8 2
  12    6    7 2
  13    6   24 1
  14    7   25 1
  15    9   10 1
  16    9   26 1
  17    9   27 1
  18   10   18 1
  19   10   22 1
  20   10   28 1
  21   11   12 ar
  22   11   29 1
  23   12   13 ar
  24   12   30 1
  25   13   14 ar
  26   13   16 1
  27   14   15 ar
  28   14   31 1
  29   15   32 1
  30   16   17 1
  31   17   33 1
  32   17   34 1
  33   17   35 1
  34   18   19 1
  35   18   36 1
  36   18   37 1
  37   19   20 1
  38   19   38 1
  39   19   39 1
  40   20   21 1
  41   20   40 1
  42   20   41 1
  43   21   22 1
  44   21   42 1
  45   21   43 1
  46   22   44 1
  47   22   45 1

#	End of record

