#	Name: ASD01190075
#	Creating user name:	WinNT
#	Creation time:	15. 06. 2019 19:07

#	Modifying user name:	WinNT
#	Modification time:	15. 06. 2019 19:07

#	Program:	/corina/corina34_cracker 3.40 0067  02.08.2006

@<TRIPOS>MOLECULE
ASD01190075
  52   55    0    0    0
SMALL
NO_CHARGES


@<TRIPOS>ATOM
   1 C1             0.3615     1.9633     0.2964 C.2     
   2 C2             0.1603     0.5725     0.3128 C.2     
   3 C3             1.2363    -0.2590     0.2061 C.2     
   4 C4             2.5192     0.2926     0.0824 C.2     
   5 C5             2.6784     1.6366     0.0700 C.2     
   6 N6             1.6063     2.4627     0.1763 N.am    
   7 O7            -0.5929     2.7189     0.3860 O.2     
   8 C8             3.7200    -0.6102    -0.0362 C.3     
   9 C9             3.5111    -1.5872    -1.1949 C.3     
  10 O10            4.8862     0.1782    -0.2822 O.3     
  11 N11            4.1490    -3.6124     4.6980 N.pl3   
  12 N12            2.9653    -4.3502     4.5936 N.2     
  13 C13            2.3304    -4.0259     3.5029 C.2     
  14 C14            3.1171    -3.0079     2.8139 C.ar    
  15 C15            2.9521    -2.2921     1.6228 C.ar    
  16 C16            3.8967    -1.3820     1.2461 C.ar    
  17 C17            5.0202    -1.1606     2.0333 C.ar    
  18 C18            5.2035    -1.8475     3.2000 C.ar    
  19 C19            4.2565    -2.7819     3.6102 C.ar    
  20 C20            5.0733    -3.7022     5.7469 C.ar    
  21 C21            4.6333    -3.9352     7.0433 C.ar    
  22 C22            5.5460    -4.0233     8.0759 C.ar    
  23 C23            6.8992    -3.8794     7.8193 C.ar    
  24 C24            7.3401    -3.6470     6.5273 C.ar    
  25 C25            6.4311    -3.5639     5.4909 C.ar    
  26 F26            7.7905    -3.9655     8.8310 F       
  27 F27            3.3470    -0.8707    -2.3852 F       
  28 F28            4.6259    -2.4253    -1.3050 F       
  29 F29            2.3694    -2.3590    -0.9540 F       
  30 C30           -1.2296     0.0058     0.4474 C.3     
  31 C31            1.8058     3.9140     0.1597 C.3     
  32 C32            2.0118     4.4088     1.5682 C.2     
  33 N33            2.2161     5.7210     1.7983 N.am    
  34 O34            1.9937     3.6263     2.4946 O.2     
  35 H35            1.1014    -1.3305     0.2171 H       
  36 H36            3.6689     2.0564    -0.0255 H       
  37 H37            5.0802     0.8212     0.4135 H       
  38 H38            1.3896    -4.4375     3.1682 H       
  39 H39            2.0821    -2.4591     1.0051 H       
  40 H40            5.7577    -0.4369     1.7188 H       
  41 H41            6.0813    -1.6662     3.8025 H       
  42 H42            3.5780    -4.0471     7.2438 H       
  43 H43            5.2042    -4.2042     9.0843 H       
  44 H44            8.3959    -3.5348     6.3293 H       
  45 H45            6.7757    -3.3874     4.4827 H       
  46 H46           -1.9491     0.8214     0.5197 H       
  47 H47           -1.4591    -0.6048    -0.4259 H       
  48 H48           -1.2858    -0.6090     1.3456 H       
  49 H49            2.6831     4.1533    -0.4414 H       
  50 H50            0.9281     4.3965    -0.2702 H       
  51 H51            2.2306     6.3468     1.0573 H       
  52 H52            2.3487     6.0395     2.7049 H       
@<TRIPOS>BOND
   1    1    2 1
   2    1    6 am
   3    1    7 2
   4    2    3 2
   5    2   30 1
   6    3    4 1
   7    3   35 1
   8    4    5 2
   9    4    8 1
  10    5    6 1
  11    5   36 1
  12    6   31 1
  13    8    9 1
  14    8   10 1
  15    8   16 1
  16    9   27 1
  17    9   28 1
  18    9   29 1
  19   10   37 1
  20   11   12 1
  21   11   19 1
  22   11   20 1
  23   12   13 2
  24   13   14 1
  25   13   38 1
  26   14   15 ar
  27   14   19 ar
  28   15   16 ar
  29   15   39 1
  30   16   17 ar
  31   17   18 ar
  32   17   40 1
  33   18   19 ar
  34   18   41 1
  35   20   21 ar
  36   20   25 ar
  37   21   22 ar
  38   21   42 1
  39   22   23 ar
  40   22   43 1
  41   23   24 ar
  42   23   26 1
  43   24   25 ar
  44   24   44 1
  45   25   45 1
  46   30   46 1
  47   30   47 1
  48   30   48 1
  49   31   32 1
  50   31   49 1
  51   31   50 1
  52   32   33 am
  53   32   34 2
  54   33   51 1
  55   33   52 1

#	End of record

