#	Name: ASD07931743
#	Creating user name:	WinNT
#	Creation time:	15. 06. 2019 21:13

#	Modifying user name:	WinNT
#	Modification time:	15. 06. 2019 21:13

#	Program:	/corina/corina34_cracker 3.40 0067  02.08.2006

@<TRIPOS>MOLECULE
ASD07931743
  60   64    0    0    0
SMALL
NO_CHARGES


@<TRIPOS>ATOM
   1 C1             1.9160    -1.9257    -1.2746 C.2     
   2 C2             0.8317    -1.1094    -1.4462 C.2     
   3 C3             1.0397     0.3398    -1.4990 C.2     
   4 N4             2.2856     0.8306    -1.3799 N.am    
   5 C5             3.3604    -0.0116    -1.2059 C.2     
   6 C6             3.1918    -1.3611    -1.1537 C.2     
   7 C7             2.5302     2.2782    -1.4347 C.3     
   8 C8             3.5902     2.6220    -0.3776 C.3     
   9 N9             4.8168     1.8732    -0.6860 N.am    
  10 C10            4.7103     0.5799    -1.0744 C.2     
  11 C11            6.1298     2.5136    -0.5756 C.3     
  12 O12            0.0928     1.0929    -1.6498 O.2     
  13 N13           -0.4520    -1.6485    -1.5695 N.pl3   
  14 C14           -1.1419    -2.3397    -0.6068 C.2     
  15 C15           -1.2546    -1.5819    -2.6642 C.2     
  16 N16           -2.3728    -2.1999    -2.3976 N.2     
  17 C17           -2.3307    -2.6742    -1.1435 C.2     
  18 C18           -3.4249    -3.4479    -0.4542 C.3     
  19 O19            5.7032    -0.0812    -1.3096 O.2     
  20 C20            6.4026     2.8686     0.8874 C.3     
  21 C21            6.2496     1.6184     1.7818 C.3     
  22 C22            5.6057     2.1602     3.0776 C.3     
  23 C23            5.4458     3.6737     2.8128 C.3     
  24 O24            5.4068     3.7946     1.3741 O.3     
  25 C25            4.1609     4.1791     3.4167 C.ar    
  26 C26            4.1299     4.5793     4.7398 C.ar    
  27 C27            3.0158     4.2474     2.6461 C.ar    
  28 C28            1.8353     4.7120     3.2005 C.ar    
  29 C29            1.8036     5.1080     4.5278 C.ar    
  30 C30            2.9525     5.0435     5.2954 C.ar    
  31 Cl31           0.3248     5.6915     5.2252 Cl      
  32 C32            6.1484     3.7881    -1.4218 C.3     
  33 F33            0.7154     4.7797     2.4479 F       
  34 C34            5.3810     4.5089     5.5770 C.3     
  35 F35            5.1026     4.9635     6.8705 F       
  36 F36            5.8299     3.1852     5.6344 F       
  37 F37            6.3718     5.3129     5.0034 F       
  38 H38            1.7885    -2.9971    -1.2282 H       
  39 H39            4.0499    -2.0025    -1.0175 H       
  40 H40            2.8947     2.5529    -2.4245 H       
  41 H41            1.6071     2.8161    -1.2190 H       
  42 H42            3.7983     3.6917    -0.4020 H       
  43 H43            3.2272     2.3392     0.6105 H       
  44 H44            6.8991     1.8290    -0.9329 H       
  45 H45           -0.7979    -2.5712     0.3904 H       
  46 H46           -1.0086    -1.0982    -3.5980 H       
  47 H47           -3.2853    -4.5137    -0.6345 H       
  48 H48           -3.3881    -3.2528     0.6176 H       
  49 H49           -4.3928    -3.1366    -0.8471 H       
  50 H50            7.4013     3.2919     0.9945 H       
  51 H51            5.5955     0.8870     1.3072 H       
  52 H52            7.2244     1.1793     1.9944 H       
  53 H53            4.6333     1.6967     3.2436 H       
  54 H54            6.2621     1.9890     3.9308 H       
  55 H55            6.2971     4.2216     3.2167 H       
  56 H56            3.0418     3.9388     1.6115 H       
  57 H57            2.9286     5.3517     6.3302 H       
  58 H58            7.1253     4.2646    -1.3396 H       
  59 H59            5.9540     3.5352    -2.4640 H       
  60 H60            5.3791     4.4727    -1.0645 H       
@<TRIPOS>BOND
   1    1    2 2
   2    1    6 1
   3    1   38 1
   4    2    3 1
   5    2   13 1
   6    3    4 am
   7    3   12 2
   8    4    5 1
   9    4    7 1
  10    5    6 2
  11    5   10 1
  12    6   39 1
  13    7    8 1
  14    7   40 1
  15    7   41 1
  16    8    9 1
  17    8   42 1
  18    8   43 1
  19    9   10 am
  20    9   11 1
  21   10   19 2
  22   11   32 1
  23   11   20 1
  24   11   44 1
  25   13   14 1
  26   13   15 1
  27   14   17 2
  28   14   45 1
  29   15   16 2
  30   15   46 1
  31   16   17 1
  32   17   18 1
  33   18   47 1
  34   18   48 1
  35   18   49 1
  36   20   21 1
  37   20   24 1
  38   20   50 1
  39   21   22 1
  40   21   51 1
  41   21   52 1
  42   22   23 1
  43   22   53 1
  44   22   54 1
  45   23   24 1
  46   23   25 1
  47   23   55 1
  48   25   26 ar
  49   25   27 ar
  50   26   34 1
  51   26   30 ar
  52   27   28 ar
  53   27   56 1
  54   28   29 ar
  55   28   33 1
  56   29   30 ar
  57   29   31 1
  58   30   57 1
  59   32   58 1
  60   32   59 1
  61   32   60 1
  62   34   35 1
  63   34   36 1
  64   34   37 1

#	End of record

