#	Name: ASD01850097
#	Creating user name:	WinNT
#	Creation time:	15. 06. 2019 19:38

#	Modifying user name:	WinNT
#	Modification time:	15. 06. 2019 19:38

#	Program:	/corina/corina34_cracker 3.40 0067  02.08.2006

@<TRIPOS>MOLECULE
ASD01850097
  56   61    0    0    0
SMALL
NO_CHARGES


@<TRIPOS>ATOM
   1 C1             1.6622     1.6064    -1.2163 C.ar    
   2 C2             1.7659     0.2277    -1.1664 C.ar    
   3 C3             2.9169    -0.3661    -0.6903 C.ar    
   4 C4             3.9800     0.4257    -0.2578 C.ar    
   5 C5             3.8587     1.8205    -0.2951 C.ar    
   6 C6             2.7097     2.4003    -0.7804 C.ar    
   7 C7             5.3205     0.0925     0.2700 C.2     
   8 N8             6.0451     1.2034     0.3974 N.am    
   9 C9             5.1320     2.3645     0.2833 C.3     
  10 C10            7.3677     1.8438     0.5236 C.3     
  11 C11            7.2664     3.0366    -0.4589 C.3     
  12 N12            5.8189     3.3009    -0.6129 N.am    
  13 C13            5.2457     4.2183    -1.4168 C.2     
  14 C14            6.0877     5.1749    -2.1639 C.ar    
  15 C15            5.4957     6.2055    -2.8967 C.ar    
  16 C16            6.2877     7.0968    -3.5926 C.ar    
  17 C17            7.6698     6.9687    -3.5638 C.ar    
  18 C18            8.2607     5.9465    -2.8377 C.ar    
  19 C19            7.4788     5.0549    -2.1349 C.ar    
  20 O20            4.0357     4.2586    -1.5271 O.2     
  21 C21            4.8821     2.9835     1.6344 C.ar    
  22 C22            4.6195     4.3373     1.7354 C.ar    
  23 C23            4.3906     4.9073     2.9727 C.ar    
  24 C24            4.4239     4.1200     4.1148 C.ar    
  25 C25            4.6873     2.7616     4.0106 C.ar    
  26 C26            4.9104     2.1956     2.7704 C.ar    
  27 O27            5.7040    -1.0274     0.5462 O.2     
  28 F28            8.4414     7.8430    -4.2461 F       
  29 F29            5.7172     8.0945    -4.3027 F       
  30 O30            4.1995     4.6783     5.3331 O.3     
  31 C31            3.9398     6.0110     5.3860 C.ar    
  32 C32            2.6339     6.4691     5.2854 C.ar    
  33 C33            2.3726     7.8245     5.3394 C.ar    
  34 C34            3.4110     8.7244     5.4936 C.ar    
  35 C35            4.7133     8.2706     5.5937 C.ar    
  36 C36            4.9794     6.9159     5.5464 C.ar    
  37 H37            0.7630     2.0649    -1.6007 H       
  38 H38            0.9427    -0.3861    -1.5010 H       
  39 H39            2.9941    -1.4427    -0.6523 H       
  40 H40            2.6246     3.4762    -0.8222 H       
  41 H41            7.5307     2.1955     1.5424 H       
  42 H42            8.1590     1.1589     0.2192 H       
  43 H43            7.7673     3.9110    -0.0433 H       
  44 H44            7.7056     2.7713    -1.4206 H       
  45 H45            4.4205     6.3049    -2.9193 H       
  46 H46            9.3363     5.8511    -2.8189 H       
  47 H47            7.9411     4.2591    -1.5698 H       
  48 H48            4.5936     4.9496     0.8461 H       
  49 H49            4.1862     5.9648     3.0510 H       
  50 H50            4.7138     2.1466     4.8980 H       
  51 H51            5.1150     1.1384     2.6887 H       
  52 H52            1.8225     5.7667     5.1646 H       
  53 H53            1.3564     8.1816     5.2608 H       
  54 H54            3.2046     9.7837     5.5356 H       
  55 H55            5.5226     8.9756     5.7133 H       
  56 H56            5.9963     6.5616     5.6298 H       
@<TRIPOS>BOND
   1    1    2 ar
   2    1    6 ar
   3    1   37 1
   4    2    3 ar
   5    2   38 1
   6    3    4 ar
   7    3   39 1
   8    4    5 ar
   9    4    7 1
  10    5    6 ar
  11    5    9 1
  12    6   40 1
  13    7    8 am
  14    7   27 2
  15    8    9 1
  16    8   10 1
  17    9   21 1
  18    9   12 1
  19   10   11 1
  20   10   41 1
  21   10   42 1
  22   11   12 1
  23   11   43 1
  24   11   44 1
  25   12   13 am
  26   13   14 1
  27   13   20 2
  28   14   15 ar
  29   14   19 ar
  30   15   16 ar
  31   15   45 1
  32   16   17 ar
  33   16   29 1
  34   17   18 ar
  35   17   28 1
  36   18   19 ar
  37   18   46 1
  38   19   47 1
  39   21   22 ar
  40   21   26 ar
  41   22   23 ar
  42   22   48 1
  43   23   24 ar
  44   23   49 1
  45   24   25 ar
  46   24   30 1
  47   25   26 ar
  48   25   50 1
  49   26   51 1
  50   30   31 1
  51   31   32 ar
  52   31   36 ar
  53   32   33 ar
  54   32   52 1
  55   33   34 ar
  56   33   53 1
  57   34   35 ar
  58   34   54 1
  59   35   36 ar
  60   35   55 1
  61   36   56 1

#	End of record

