#	Name: ASD01410964
#	Creating user name:	WinNT
#	Creation time:	15. 06. 2019 19:19

#	Modifying user name:	WinNT
#	Modification time:	15. 06. 2019 19:19

#	Program:	/corina/corina34_cracker 3.40 0067  02.08.2006

@<TRIPOS>MOLECULE
ASD01410964
  76   79    0    0    0
SMALL
NO_CHARGES


@<TRIPOS>ATOM
   1 C1             0.2891     2.6931    -0.1900 C.ar    
   2 C2             0.4784     1.3628    -0.5452 C.ar    
   3 C3            -0.6005     0.5085    -0.6503 C.ar    
   4 C4            -1.8843     0.9733    -0.4009 C.ar    
   5 C5            -2.0821     2.3152    -0.0414 C.ar    
   6 C6            -0.9831     3.1707     0.0669 C.ar    
   7 O7             1.3588     3.5263    -0.0893 O.3     
   8 C8             1.9977     3.8835    -1.2316 C.ar    
   9 N9            -2.9737     0.1099    -0.5077 N.am    
  10 C10           -3.4725    -0.4851     0.5940 C.2     
  11 C11           -2.9288    -0.1298     1.9539 C.3     
  12 O12           -4.3589    -1.3064     0.4909 O.2     
  13 C13           -3.9925    -0.4097     3.0174 C.3     
  14 C14           -1.1332    -0.6124     3.6228 C.3     
  15 C15           -2.1969    -0.8923     4.6863 C.3     
  16 C16           -3.4405    -0.0490     4.3980 C.3     
  17 C17           -1.6449    -0.5316     6.0669 C.3     
  18 N18            1.5100     3.5036    -2.4013 N.ar    
  19 C19           -3.5763    -0.1506    -1.8173 C.3     
  20 C20           -3.9286    -1.6352    -1.9304 C.3     
  21 C21            3.1542     4.6495    -1.1622 C.ar    
  22 C22            3.7962     5.0076    -2.3351 C.ar    
  23 C23            3.2555     4.5847    -3.5414 C.ar    
  24 C24            2.0993     3.8295    -3.5357 C.ar    
  25 C25           -1.6851    -0.9731     2.2421 C.3     
  26 C26            3.9197     4.9508    -4.8436 C.3     
  27 C27           -4.8468     0.6882    -1.9701 C.3     
  28 N28            4.8944     3.9176    -5.2021 N.pl3   
  29 N29            4.6296     2.8780    -5.9113 N.2     
  30 C30           -2.7270    -2.4787    -1.4997 C.3     
  31 O31           -4.4991     2.0729    -2.0296 O.3     
  32 C32           -5.6197     2.9479    -2.1728 C.3     
  33 C33            5.7256     2.1651    -6.0401 C.2     
  34 C34            6.7166     2.8571    -5.3401 C.2     
  35 N35            6.1326     3.9294    -4.8552 N.2     
  36 C36            3.7026     5.0852     0.1721 C.3     
  37 F37            4.8642     5.8396    -0.0249 F       
  38 F38            2.7486     5.8630     0.8369 F       
  39 F39            4.0042     3.9574     0.9431 F       
  40 C40           -3.4417     2.8182     0.2249 C.2     
  41 O41           -4.3897     2.0593     0.1812 O.2     
  42 O42           -3.6335     4.1197     0.5169 O.3     
  43 H43            1.4751     0.9957    -0.7404 H       
  44 H44           -0.4455    -0.5237    -0.9274 H       
  45 H45           -1.1274     4.2046     0.3434 H       
  46 H46           -2.6637     0.9273     1.9744 H       
  47 H47           -4.8785     0.1911     2.8120 H       
  48 H48           -4.2575    -1.4667     2.9969 H       
  49 H49           -0.8681     0.4447     3.6433 H       
  50 H50           -0.2472    -1.2132     3.8281 H       
  51 H51           -2.4619    -1.9493     4.6658 H       
  52 H52           -3.1755     1.0081     4.4186 H       
  53 H53           -4.1983    -0.2483     5.1557 H       
  54 H54           -1.3798     0.5255     6.0875 H       
  55 H55           -2.4027    -0.7309     6.8246 H       
  56 H56           -0.7589    -1.1324     6.2723 H       
  57 H57           -2.8685     0.1157    -2.6024 H       
  58 H58           -4.7784    -1.8571    -1.2850 H       
  59 H59           -4.1857    -1.8699    -2.9633 H       
  60 H60            4.6970     5.6029    -2.3121 H       
  61 H61            1.6747     3.4975    -4.4717 H       
  62 H62           -1.9502    -2.0302     2.2216 H       
  63 H63           -0.9273    -0.7738     1.4844 H       
  64 H64            3.1658     5.0267    -5.6272 H       
  65 H65            4.4287     5.9086    -4.7352 H       
  66 H66           -5.3622     0.4032    -2.8873 H       
  67 H67           -5.5017     0.5144    -1.1163 H       
  68 H68           -1.8539    -2.1939    -2.0869 H       
  69 H69           -2.5246    -2.3093    -0.4421 H       
  70 H70           -2.9464    -3.5338    -1.6632 H       
  71 H71           -5.2721     3.9804    -2.2103 H       
  72 H72           -6.1512     2.7099    -3.0942 H       
  73 H73           -6.2907     2.8210    -1.3232 H       
  74 H74            5.8373     1.2347    -6.5769 H       
  75 H75            7.7518     2.5716    -5.2250 H       
  76 H76           -4.5429     4.4028     0.6840 H       
@<TRIPOS>BOND
   1    1    2 ar
   2    1    7 1
   3    1    6 ar
   4    2    3 ar
   5    2   43 1
   6    3    4 ar
   7    3   44 1
   8    4    5 ar
   9    4    9 1
  10    5    6 ar
  11    5   40 1
  12    6   45 1
  13    7    8 1
  14    8   21 ar
  15    8   18 ar
  16    9   10 am
  17    9   19 1
  18   10   12 2
  19   10   11 1
  20   11   13 1
  21   11   25 1
  22   11   46 1
  23   13   16 1
  24   13   47 1
  25   13   48 1
  26   14   15 1
  27   14   25 1
  28   14   49 1
  29   14   50 1
  30   15   16 1
  31   15   17 1
  32   15   51 1
  33   16   52 1
  34   16   53 1
  35   17   54 1
  36   17   55 1
  37   17   56 1
  38   18   24 ar
  39   19   20 1
  40   19   27 1
  41   19   57 1
  42   20   30 1
  43   20   58 1
  44   20   59 1
  45   21   22 ar
  46   21   36 1
  47   22   23 ar
  48   22   60 1
  49   23   24 ar
  50   23   26 1
  51   24   61 1
  52   25   62 1
  53   25   63 1
  54   26   28 1
  55   26   64 1
  56   26   65 1
  57   27   31 1
  58   27   66 1
  59   27   67 1
  60   28   29 1
  61   28   35 1
  62   29   33 2
  63   30   68 1
  64   30   69 1
  65   30   70 1
  66   31   32 1
  67   32   71 1
  68   32   72 1
  69   32   73 1
  70   33   34 1
  71   33   74 1
  72   34   35 2
  73   34   75 1
  74   36   37 1
  75   36   38 1
  76   36   39 1
  77   40   41 2
  78   40   42 1
  79   42   76 1

#	End of record

