#	Name: ASD01940235
#	Creating user name:	WinNT
#	Creation time:	15. 06. 2019 20:12

#	Modifying user name:	WinNT
#	Modification time:	15. 06. 2019 20:12

#	Program:	/corina/corina34_cracker 3.40 0067  02.08.2006

@<TRIPOS>MOLECULE
ASD01940235
  42   44    0    0    0
SMALL
NO_CHARGES


@<TRIPOS>ATOM
   1 N1             5.4225    -1.5372    -2.8942 N.pl3   
   2 N2             6.6021    -1.1083    -2.2720 N.2     
   3 C3             6.2762    -0.3545    -1.2534 C.2     
   4 C4             4.8808    -0.2793    -1.1943 C.2     
   5 C5             4.3806    -1.0149    -2.2140 C.2     
   6 S6             3.9404     0.6150    -0.0024 S.o2    
   7 O7             4.4822     1.9282     0.0330 O.2     
   8 O8             2.5741     0.3453    -0.2848 O.2     
   9 N9             4.2544    -0.0604     1.4766 N.am    
  10 C10            7.2382     0.3163    -0.3071 C.3     
  11 F11            8.5504    -0.0050    -0.6706 F       
  12 F12            7.0632     1.7029    -0.3695 F       
  13 F13            6.9941    -0.1263     0.9974 F       
  14 C14            5.3355    -2.3958    -4.0780 C.3     
  15 C15            3.8055    -1.3562     1.7647 C.ar    
  16 C16            3.4516    -1.6990     3.0691 C.ar    
  17 C17            3.0070    -2.9840     3.3487 C.ar    
  18 C18            2.9164    -3.9213     2.3315 C.ar    
  19 C19            3.2687    -3.5787     1.0377 C.ar    
  20 C20            3.7069    -2.2982     0.7522 C.ar    
  21 N21            3.5449    -0.7488     4.0953 N.pl3   
  22 C22            3.5740    -1.1626     5.4308 C.ar    
  23 C23            4.6663    -1.8749     5.9165 C.ar    
  24 C24            4.6913    -2.2816     7.2373 C.ar    
  25 C25            3.6315    -1.9812     8.0750 C.ar    
  26 C26            2.5448    -1.2738     7.5942 C.ar    
  27 C27            2.5159    -0.8588     6.2765 C.ar    
  28 I28            3.6731    -2.6001    10.0761 I       
  29 F29            5.7004    -2.1688     5.0983 F       
  30 F30            2.4837    -5.1719     2.6038 F       
  31 F31            2.6635    -3.3208     4.6111 F       
  32 H32            3.3348    -1.1583    -2.4425 H       
  33 H33            4.7491     0.4410     2.1436 H       
  34 H34            5.2971    -3.4400    -3.7674 H       
  35 H35            4.4341    -2.1503    -4.6395 H       
  36 H36            6.2107    -2.2361    -4.7078 H       
  37 H37            3.1973    -4.3120     0.2480 H       
  38 H38            3.9763    -2.0331    -0.2595 H       
  39 H39            3.5893     0.1957     3.8792 H       
  40 H40            5.5383    -2.8345     7.6158 H       
  41 H41            1.7192    -1.0419     8.2507 H       
  42 H42            1.6686    -0.3025     5.9036 H       
@<TRIPOS>BOND
   1    1    2 1
   2    1    5 1
   3    1   14 1
   4    2    3 2
   5    3    4 1
   6    3   10 1
   7    4    5 2
   8    4    6 1
   9    5   32 1
  10    6    7 2
  11    6    8 2
  12    6    9 am
  13    9   15 1
  14    9   33 1
  15   10   11 1
  16   10   12 1
  17   10   13 1
  18   14   34 1
  19   14   35 1
  20   14   36 1
  21   15   16 ar
  22   15   20 ar
  23   16   17 ar
  24   16   21 1
  25   17   18 ar
  26   17   31 1
  27   18   19 ar
  28   18   30 1
  29   19   20 ar
  30   19   37 1
  31   20   38 1
  32   21   22 1
  33   21   39 1
  34   22   23 ar
  35   22   27 ar
  36   23   24 ar
  37   23   29 1
  38   24   25 ar
  39   24   40 1
  40   25   26 ar
  41   25   28 1
  42   26   27 ar
  43   26   41 1
  44   27   42 1

#	End of record

