#	Name: ASD03430603
#	Creating user name:	WinNT
#	Creation time:	15. 06. 2019 20:41

#	Modifying user name:	WinNT
#	Modification time:	15. 06. 2019 20:41

#	Program:	/corina/corina34_cracker 3.40 0067  02.08.2006

@<TRIPOS>MOLECULE
ASD03430603
  57   62    0    0    0
SMALL
NO_CHARGES


@<TRIPOS>ATOM
   1 N1            -0.0157     1.4932     0.4901 N.am    
   2 C2             0.0409     0.2263     0.9344 C.2     
   3 C3             1.4805    -0.0488     1.3138 C.3     
   4 C4             2.1944     1.2486     1.0119 C.ar    
   5 C5             3.5068     1.6459     1.1356 C.ar    
   6 C6             3.8770     2.9283     0.7699 C.ar    
   7 C7             2.9262     3.8059     0.2814 C.ar    
   8 C8             1.6107     3.4103     0.1566 C.ar    
   9 C9             1.2302     2.1206     0.5227 C.ar    
  10 O10           -0.8869    -0.5506     1.0164 O.2     
  11 C11           -1.2434     2.1395     0.0197 C.3     
  12 C12           -0.9991     2.7578    -1.3327 C.ar    
  13 C13           -1.5150     4.0065    -1.6251 C.ar    
  14 C14           -1.2910     4.5737    -2.8657 C.ar    
  15 C15           -0.5506     3.8925    -3.8136 C.ar    
  16 C16           -0.0338     2.6442    -3.5208 C.ar    
  17 C17           -0.2543     2.0789    -2.2788 C.ar    
  18 C18           -2.3417     1.1133    -0.0882 C.ar    
  19 C19           -3.4804     1.2356     0.6859 C.ar    
  20 C20           -4.4879     0.2942     0.5870 C.ar    
  21 C21           -4.3568    -0.7692    -0.2864 C.ar    
  22 C22           -3.2185    -0.8911    -1.0611 C.ar    
  23 C23           -2.2129     0.0527    -0.9654 C.ar    
  24 O24            2.7458    -3.0865     4.9427 O.3     
  25 C25            2.8316    -4.1265     3.9625 C.3     
  26 C26            3.4153    -3.5269     2.6760 C.3     
  27 O27            2.5443    -2.4804     2.2339 O.3     
  28 C28            2.1211    -1.5961     3.1786 C.ar    
  29 C29            2.2194    -1.8994     4.5314 C.ar    
  30 C30            1.5858    -0.3807     2.7801 C.ar    
  31 C31            1.1480     0.5296     3.7295 C.ar    
  32 C32            1.2452     0.2244     5.0795 C.ar    
  33 C33            1.7794    -0.9871     5.4784 C.ar    
  34 O34            0.6237     1.7218     3.3377 O.3     
  35 Cl35           0.6953     1.3637     6.2683 Cl      
  36 H36            1.8871    -0.8585     0.7078 H       
  37 H37            4.2463     0.9579     1.5178 H       
  38 H38            4.9056     3.2431     0.8661 H       
  39 H39            3.2153     4.8067    -0.0035 H       
  40 H40            0.8740     4.1015    -0.2257 H       
  41 H41           -1.5391     2.9153     0.7259 H       
  42 H42           -2.0935     4.5388    -0.8845 H       
  43 H43           -1.6947     5.5490    -3.0944 H       
  44 H44           -0.3761     4.3353    -4.7831 H       
  45 H45            0.5443     2.1118    -4.2616 H       
  46 H46            0.1525     1.1052    -2.0488 H       
  47 H47           -3.5828     2.0665     1.3683 H       
  48 H48           -5.3772     0.3894     1.1923 H       
  49 H49           -5.1436    -1.5051    -0.3632 H       
  50 H50           -3.1159    -1.7221    -1.7432 H       
  51 H51           -1.3252    -0.0405    -1.5734 H       
  52 H52            3.4827    -4.9214     4.3260 H       
  53 H53            1.8375    -4.5269     3.7634 H       
  54 H54            4.4063    -3.1198     2.8768 H       
  55 H55            3.4827    -4.2981     1.9086 H       
  56 H56            1.8538    -1.2233     6.5296 H       
  57 H57           -0.3334     1.7044     3.2002 H       
@<TRIPOS>BOND
   1    1    2 am
   2    1    9 1
   3    1   11 1
   4    2    3 1
   5    2   10 2
   6    3    4 1
   7    3   30 1
   8    3   36 1
   9    4    5 ar
  10    4    9 ar
  11    5    6 ar
  12    5   37 1
  13    6    7 ar
  14    6   38 1
  15    7    8 ar
  16    7   39 1
  17    8    9 ar
  18    8   40 1
  19   11   12 1
  20   11   18 1
  21   11   41 1
  22   12   13 ar
  23   12   17 ar
  24   13   14 ar
  25   13   42 1
  26   14   15 ar
  27   14   43 1
  28   15   16 ar
  29   15   44 1
  30   16   17 ar
  31   16   45 1
  32   17   46 1
  33   18   19 ar
  34   18   23 ar
  35   19   20 ar
  36   19   47 1
  37   20   21 ar
  38   20   48 1
  39   21   22 ar
  40   21   49 1
  41   22   23 ar
  42   22   50 1
  43   23   51 1
  44   24   25 1
  45   24   29 1
  46   25   26 1
  47   25   52 1
  48   25   53 1
  49   26   27 1
  50   26   54 1
  51   26   55 1
  52   27   28 1
  53   28   29 ar
  54   28   30 ar
  55   29   33 ar
  56   30   31 ar
  57   31   32 ar
  58   31   34 1
  59   32   33 ar
  60   32   35 1
  61   33   56 1
  62   34   57 1

#	End of record

