#	Name: ASD04842010
#	Creating user name:	WinNT
#	Creation time:	15. 06. 2019 20:52

#	Modifying user name:	WinNT
#	Modification time:	15. 06. 2019 20:52

#	Program:	/corina/corina34_cracker 3.40 0067  02.08.2006

@<TRIPOS>MOLECULE
ASD04842010
  28   30    0    0    0
SMALL
NO_CHARGES


@<TRIPOS>ATOM
   1 N1            -0.0166     1.3758     0.0096 N.pl3   
   2 C2             0.0021    -0.0041     0.0020 C.2     
   3 C3             1.2966    -0.4271    -0.0127 C.2     
   4 C4             2.1216     0.7206    -0.0144 C.ar    
   5 C5             3.5233     0.8944    -0.0269 C.ar    
   6 C6             4.0682     2.1320    -0.0255 C.ar    
   7 C7             3.2429     3.2777    -0.0113 C.ar    
   8 C8             1.8353     3.1324     0.0015 C.ar    
   9 C9             1.2722     1.8352    -0.0002 C.ar    
  10 C10            1.0241     4.2752     0.0156 C.ar    
  11 C11            1.5984     5.5120     0.0168 C.ar    
  12 C12            2.9819     5.6562     0.0042 C.ar    
  13 C13            3.7996     4.5654    -0.0092 C.ar    
  14 C14           -1.1802    -0.8739     0.0087 C.2     
  15 O15           -1.0460    -2.0823     0.0009 O.2     
  16 O16           -2.4154    -0.3328     0.0234 O.3     
  17 C17           -3.5383    -1.2533     0.0292 C.3     
  18 H18           -0.8131     1.9293     0.0166 H       
  19 H19            1.6320    -1.4536    -0.0211 H       
  20 H20            4.1679     0.0280    -0.0375 H       
  21 H21            5.1423     2.2450    -0.0349 H       
  22 H22           -0.0513     4.1767     0.0251 H       
  23 H23            0.9710     6.3910     0.0273 H       
  24 H24            3.4143     6.6458     0.0054 H       
  25 H25            4.8721     4.6922    -0.0192 H       
  26 H26           -3.5021    -1.8762    -0.8645 H       
  27 H27           -3.4851    -1.8857     0.9154 H       
  28 H28           -4.4708    -0.6888     0.0412 H       
@<TRIPOS>BOND
   1    1    2 1
   2    1    9 1
   3    1   18 1
   4    2    3 2
   5    2   14 1
   6    3    4 1
   7    3   19 1
   8    4    5 ar
   9    4    9 ar
  10    5    6 ar
  11    5   20 1
  12    6    7 ar
  13    6   21 1
  14    7    8 ar
  15    7   13 ar
  16    8    9 ar
  17    8   10 ar
  18   10   11 ar
  19   10   22 1
  20   11   12 ar
  21   11   23 1
  22   12   13 ar
  23   12   24 1
  24   13   25 1
  25   14   15 2
  26   14   16 1
  27   16   17 1
  28   17   26 1
  29   17   27 1
  30   17   28 1

#	End of record

