#	Name: ASD03090768
#	Creating user name:	WinNT
#	Creation time:	15. 06. 2019 20:29

#	Modifying user name:	WinNT
#	Modification time:	15. 06. 2019 20:29

#	Program:	/corina/corina34_cracker 3.40 0067  02.08.2006

@<TRIPOS>MOLECULE
ASD03090768
  43   45    0    0    0
SMALL
NO_CHARGES


@<TRIPOS>ATOM
   1 O1            -0.0173     1.4248     0.0099 O.3     
   2 C2             0.0021    -0.0041     0.0020 C.3     
   3 C3            -1.4333    -0.5336     0.0129 C.3     
   4 C4            -1.4126    -2.0635     0.0045 C.3     
   5 C5            -2.8198    -2.5857     0.1389 C.ar    
   6 C6            -3.2796    -3.0251     1.3663 C.ar    
   7 C7            -4.5704    -3.5042     1.4896 C.ar    
   8 C8            -5.4015    -3.5434     0.3857 C.ar    
   9 C9            -4.9420    -3.1031    -0.8414 C.ar    
  10 C10           -3.6526    -2.6200    -0.9638 C.ar    
  11 N11           -0.8342    -2.5371    -1.2555 N.am    
  12 C12            0.5029    -2.6470    -1.3840 C.2     
  13 O13            1.2273    -2.3538    -0.4566 O.2     
  14 C14            1.0978    -3.1342    -2.6801 C.3     
  15 C15            1.8882    -2.1267    -3.5174 C.3     
  16 C16            2.6220    -3.2373    -2.7631 C.3     
  17 C17            3.1997    -4.3667    -3.5766 C.ar    
  18 C18            4.0223    -5.3011    -2.9756 C.ar    
  19 C19            4.5523    -6.3370    -3.7218 C.ar    
  20 C20            4.2593    -6.4388    -5.0689 C.ar    
  21 C21            3.4360    -5.5050    -5.6697 C.ar    
  22 C22            2.9026    -4.4715    -4.9225 C.ar    
  23 H23            0.8606     1.8301     0.0037 H       
  24 H24            0.5123    -0.3556    -0.8948 H       
  25 H25            0.5293    -0.3651     0.8851 H       
  26 H26           -1.9435    -0.1821     0.9097 H       
  27 H27           -1.9605    -0.1726    -0.8702 H       
  28 H28           -0.8102    -2.4233     0.8386 H       
  29 H29           -2.6303    -2.9945     2.2287 H       
  30 H30           -4.9294    -3.8481     2.4484 H       
  31 H31           -6.4098    -3.9183     0.4819 H       
  32 H32           -5.5912    -3.1341    -1.7040 H       
  33 H33           -3.2936    -2.2760    -1.9226 H       
  34 H34           -1.4137    -2.7716    -1.9972 H       
  35 H35            0.5125    -3.8829    -3.2139 H       
  36 H36            1.8233    -2.2129    -4.6020 H       
  37 H37            1.9780    -1.1115    -3.1308 H       
  38 H38            3.1945    -2.9528    -1.8802 H       
  39 H39            4.2512    -5.2216    -1.9231 H       
  40 H40            5.1955    -7.0667    -3.2524 H       
  41 H41            4.6739    -7.2478    -5.6521 H       
  42 H42            3.2074    -5.5843    -6.7223 H       
  43 H43            2.2593    -3.7419    -5.3919 H       
@<TRIPOS>BOND
   1    1    2 1
   2    1   23 1
   3    2    3 1
   4    2   24 1
   5    2   25 1
   6    3    4 1
   7    3   26 1
   8    3   27 1
   9    4    5 1
  10    4   11 1
  11    4   28 1
  12    5    6 ar
  13    5   10 ar
  14    6    7 ar
  15    6   29 1
  16    7    8 ar
  17    7   30 1
  18    8    9 ar
  19    8   31 1
  20    9   10 ar
  21    9   32 1
  22   10   33 1
  23   11   12 am
  24   11   34 1
  25   12   13 2
  26   12   14 1
  27   14   15 1
  28   14   16 1
  29   14   35 1
  30   15   16 1
  31   15   36 1
  32   15   37 1
  33   16   17 1
  34   16   38 1
  35   17   18 ar
  36   17   22 ar
  37   18   19 ar
  38   18   39 1
  39   19   20 ar
  40   19   40 1
  41   20   21 ar
  42   20   41 1
  43   21   22 ar
  44   21   42 1
  45   22   43 1

#	End of record

