#	Name: ASD03540301
#	Creating user name:	WinNT
#	Creation time:	15. 06. 2019 20:42

#	Modifying user name:	WinNT
#	Modification time:	15. 06. 2019 20:42

#	Program:	/corina/corina34_cracker 3.40 0067  02.08.2006

@<TRIPOS>MOLECULE
ASD03540301
  52   54    0    0    0
SMALL
NO_CHARGES


@<TRIPOS>ATOM
   1 C1            -0.5751     1.2980    -0.7062 C.ar    
   2 C2            -0.5656    -0.0888    -0.7407 C.ar    
   3 C3             0.6399    -0.7734    -0.6881 C.ar    
   4 C4             1.8275    -0.0730    -0.6015 C.ar    
   5 C5             1.8153     1.3092    -0.5668 C.ar    
   6 C6             0.6152     1.9938    -0.6195 C.ar    
   7 O7            -1.7352    -0.7756    -0.8255 O.3     
   8 C8            -1.6494    -2.2017    -0.8566 C.3     
   9 C9             3.1122     2.0707    -0.4713 C.3     
  10 N10            3.6132     2.3529    -1.8187 N.am    
  11 C11            4.7679     3.0288    -1.9806 C.2     
  12 C12            5.2689     3.3109    -3.3278 C.2     
  13 O13            5.3945     3.4048    -1.0072 O.2     
  14 S14            4.4727     2.8316    -4.8161 S.3     
  15 C15            5.6970     3.5409    -5.7734 C.2     
  16 C16            6.6702     4.1181    -4.9665 C.2     
  17 C17            6.4015     3.9790    -3.6029 C.2     
  18 N18            5.8350     3.6106    -7.1484 N.am    
  19 C19            6.8861     4.2216    -7.7135 C.2     
  20 N20            7.8556     4.7960    -6.9834 N.am    
  21 C21            7.8106     4.7807    -5.6383 C.2     
  22 O22            8.6936     5.3038    -4.9845 O.2     
  23 O23            6.9641     4.2565    -8.9263 O.2     
  24 C24            4.8123     3.0039    -8.0040 C.3     
  25 C25            8.9789     5.4484    -7.6607 C.3     
  26 C26            8.6457     6.8979    -7.9034 C.2     
  27 C27            8.7287     7.3955    -9.1124 C.2     
  28 C28            9.2841     6.5580   -10.2355 C.3     
  29 C29            8.2688     8.8054    -9.3802 C.3     
  30 H30           -1.5120     1.8334    -0.7515 H       
  31 H31            0.6499    -1.8530    -0.7145 H       
  32 H32            2.7662    -0.6054    -0.5605 H       
  33 H33            0.6083     3.0735    -0.5923 H       
  34 H34           -1.1667    -2.5566     0.0539 H       
  35 H35           -2.6517    -2.6246    -0.9251 H       
  36 H36           -1.0643    -2.5116    -1.7225 H       
  37 H37            2.9446     3.0088     0.0578 H       
  38 H38            3.8451     1.4735     0.0712 H       
  39 H39            3.1138     2.0532    -2.5945 H       
  40 H40            7.0531     4.3684    -2.8348 H       
  41 H41            4.0389     3.7400    -8.2235 H       
  42 H42            5.2695     2.6687    -8.9350 H       
  43 H43            4.3675     2.1517    -7.4902 H       
  44 H44            9.8693     5.3800    -7.0358 H       
  45 H45            9.1652     4.9538    -8.6140 H       
  46 H46            8.3386     7.5265    -7.0807 H       
  47 H47            8.4910     5.9373   -10.6523 H       
  48 H48            9.6815     7.2104   -11.0130 H       
  49 H49           10.0815     5.9206    -9.8534 H       
  50 H50            9.1024     9.4929    -9.2368 H       
  51 H51            7.9076     8.8812   -10.4058 H       
  52 H52            7.4638     9.0620    -8.6915 H       
@<TRIPOS>BOND
   1    1    2 ar
   2    1    6 ar
   3    1   30 1
   4    2    3 ar
   5    2    7 1
   6    3    4 ar
   7    3   31 1
   8    4    5 ar
   9    4   32 1
  10    5    6 ar
  11    5    9 1
  12    6   33 1
  13    7    8 1
  14    8   34 1
  15    8   35 1
  16    8   36 1
  17    9   10 1
  18    9   37 1
  19    9   38 1
  20   10   11 am
  21   10   39 1
  22   11   12 1
  23   11   13 2
  24   12   14 1
  25   12   17 2
  26   14   15 1
  27   15   16 2
  28   15   18 1
  29   16   17 1
  30   16   21 1
  31   17   40 1
  32   18   19 am
  33   18   24 1
  34   19   20 am
  35   19   23 2
  36   20   21 am
  37   20   25 1
  38   21   22 2
  39   24   41 1
  40   24   42 1
  41   24   43 1
  42   25   26 1
  43   25   44 1
  44   25   45 1
  45   26   27 2
  46   26   46 1
  47   27   28 1
  48   27   29 1
  49   28   47 1
  50   28   48 1
  51   28   49 1
  52   29   50 1
  53   29   51 1
  54   29   52 1

#	End of record

