#	Name: ASD01028389
#	Creating user name:	WinNT
#	Creation time:	15. 06. 2019 18:57

#	Modifying user name:	WinNT
#	Modification time:	15. 06. 2019 18:57

#	Program:	/corina/corina34_cracker 3.40 0067  02.08.2006

@<TRIPOS>MOLECULE
ASD01028389
  49   53    0    0    0
SMALL
NO_CHARGES


@<TRIPOS>ATOM
   1 C1            -0.0171     1.4118     0.0098 C.ar    
   2 C2             0.0021    -0.0041     0.0020 C.ar    
   3 C3             1.2105     2.1116     0.0018 C.ar    
   4 C4             2.3793     1.3714    -0.0133 C.ar    
   5 C5             2.3160    -0.0162    -0.0202 C.ar    
   6 N6             1.1704    -0.6565    -0.0123 N.ar    
   7 O7             1.2420     3.4670     0.0084 O.3     
   8 C8             2.5299     4.0861    -0.0005 C.3     
   9 C9             2.3673     5.5842     0.0086 C.2     
  10 N10            2.2915     6.3713     1.1040 N.pl3   
  11 C11            2.1477     7.6568     0.6381 C.2     
  12 N12            2.1436     7.5869    -0.6830 N.2     
  13 N13            2.2796     6.3586    -1.0440 N.2     
  14 N14            2.3300     6.1248     2.4778 N.2     
  15 C15            2.2295     7.1157     3.3360 C.2     
  16 C16            2.0811     8.4458     2.8891 C.2     
  17 C17            2.0411     8.7172     1.5579 C.2     
  18 C18            2.2723     6.8319     4.7916 C.ar    
  19 C19           -1.2152    -0.7043     0.0100 C.ar    
  20 C20           -2.4012    -0.0065     0.0251 C.ar    
  21 C21           -2.4085     1.3917     0.0322 C.ar    
  22 C22           -1.2431     2.0938     0.0309 C.ar    
  23 O23           -3.5786    -0.6840     0.0328 O.3     
  24 C24           -4.7758     0.0961     0.0485 C.3     
  25 C25            2.4181     5.5219     5.2448 C.ar    
  26 C26            2.4578     5.2630     6.5997 C.ar    
  27 C27            2.3528     6.3007     7.5083 C.ar    
  28 C28            2.1726     7.8745     5.7103 C.ar    
  29 C29            2.2073     7.6037     7.0646 C.ar    
  30 Cl30           2.0750     8.9002     8.2114 Cl      
  31 C31            2.3963     6.0114     8.9867 C.3     
  32 F32            2.5473     4.6352     9.1883 F       
  33 F33            3.4767     6.6883     9.5627 F       
  34 F34            1.2055     6.4420     9.5814 F       
  35 H35            3.3370     1.8705    -0.0202 H       
  36 H36            3.2348    -0.5838    -0.0321 H       
  37 H37            3.0883     3.7758     0.8827 H       
  38 H38            3.0716     3.7849    -0.8972 H       
  39 H39            1.9998     9.2495     3.6059 H       
  40 H40            1.9280     9.7334     1.2102 H       
  41 H41           -1.2205    -1.7843     0.0039 H       
  42 H42           -3.3501     1.9205     0.0433 H       
  43 H43           -1.2617     3.1736     0.0364 H       
  44 H44           -4.7911     0.7202     0.9420 H       
  45 H45           -4.8082     0.7297    -0.8378 H       
  46 H46           -5.6412    -0.5666     0.0533 H       
  47 H47            2.4996     4.7106     4.5366 H       
  48 H48            2.5708     4.2482     6.9513 H       
  49 H49            2.0639     8.8919     5.3645 H       
@<TRIPOS>BOND
   1    1    2 ar
   2    1    3 ar
   3    1   22 ar
   4    2   19 ar
   5    2    6 ar
   6    3    4 ar
   7    3    7 1
   8    4    5 ar
   9    4   35 1
  10    5    6 ar
  11    5   36 1
  12    7    8 1
  13    8    9 1
  14    8   37 1
  15    8   38 1
  16    9   10 1
  17    9   13 2
  18   10   11 1
  19   10   14 1
  20   11   12 2
  21   11   17 1
  22   12   13 1
  23   14   15 2
  24   15   16 1
  25   15   18 1
  26   16   17 2
  27   16   39 1
  28   17   40 1
  29   18   25 ar
  30   18   28 ar
  31   19   20 ar
  32   19   41 1
  33   20   21 ar
  34   20   23 1
  35   21   22 ar
  36   21   42 1
  37   22   43 1
  38   23   24 1
  39   24   44 1
  40   24   45 1
  41   24   46 1
  42   25   26 ar
  43   25   47 1
  44   26   27 ar
  45   26   48 1
  46   27   29 ar
  47   27   31 1
  48   28   29 ar
  49   28   49 1
  50   29   30 1
  51   31   32 1
  52   31   33 1
  53   31   34 1

#	End of record

