#	Name: ASD07300231
#	Creating user name:	WinNT
#	Creation time:	15. 06. 2019 21:09

#	Modifying user name:	WinNT
#	Modification time:	15. 06. 2019 21:09

#	Program:	/corina/corina34_cracker 3.40 0067  02.08.2006

@<TRIPOS>MOLECULE
ASD07300231
  51   55    0    0    0
SMALL
NO_CHARGES


@<TRIPOS>ATOM
   1 C1            -0.8593     0.9898    -0.1290 C.ar    
   2 C2            -1.0224    -0.3809    -0.3520 C.ar    
   3 C3             0.0629    -1.2295    -0.1925 C.ar    
   4 C4             1.2779    -0.6768     0.1857 C.ar    
   5 C5             1.3673     0.6874     0.3894 C.ar    
   6 N6             0.3188     1.4718     0.2306 N.ar    
   7 C7            -2.9733     0.6168    -0.6996 C.2     
   8 N8            -2.0978     1.5795    -0.3555 N.am    
   9 N9            -2.3523    -0.5781    -0.7118 N.am    
  10 O10           -4.1470     0.7991    -0.9639 O.2     
  11 C11           -2.9719    -1.8647    -1.0387 C.3     
  12 C12           -4.1189    -2.1405    -0.0645 C.3     
  13 C13           -3.5162    -1.8203    -2.4679 C.3     
  14 C14           -2.3866     2.9476    -0.2434 C.ar    
  15 C15           -3.6708     3.4094    -0.4983 C.ar    
  16 C16           -3.9547     4.7561    -0.3874 C.ar    
  17 C17           -2.9568     5.6478    -0.0213 C.ar    
  18 C18           -1.6733     5.1868     0.2336 C.ar    
  19 C19           -1.3897     3.8396     0.1281 C.ar    
  20 O20           -3.2368     6.9738     0.0874 O.3     
  21 C21           -3.9132     7.3925     1.1815 C.2     
  22 N22           -4.2407     6.6360     2.1967 N.2     
  23 C23           -4.9115     7.3750     3.1189 C.ar    
  24 C24           -4.9944     8.6846     2.6168 C.ar    
  25 N25           -4.3497     8.6678     1.3918 N.pl3   
  26 C26           -5.4764     7.0780     4.3613 C.ar    
  27 C27           -6.1073     8.0687     5.0801 C.ar    
  28 C28           -6.1868     9.3596     4.5797 C.ar    
  29 C29           -5.6339     9.6694     3.3541 C.ar    
  30 C30           -4.1722     9.8069     0.4879 C.3     
  31 H31           -0.0353    -2.2922    -0.3580 H       
  32 H32            2.1452    -1.3063     0.3200 H       
  33 H33            2.3126     1.1187     0.6838 H       
  34 H34           -2.2279    -2.6573    -0.9577 H       
  35 H35           -4.8629    -1.3480    -0.1454 H       
  36 H36           -4.5799    -3.0978    -0.3076 H       
  37 H37           -3.7312    -2.1722     0.9538 H       
  38 H38           -2.6990    -1.6238    -3.1619 H       
  39 H39           -3.9772    -2.7776    -2.7111 H       
  40 H40           -4.2601    -1.0278    -2.5489 H       
  41 H41           -4.4476     2.7154    -0.7837 H       
  42 H42           -4.9536     5.1154    -0.5860 H       
  43 H43           -0.8968     5.8813     0.5186 H       
  44 H44           -0.3915     3.4803     0.3305 H       
  45 H45           -5.4188     6.0746     4.7568 H       
  46 H46           -6.5439     7.8385     6.0408 H       
  47 H47           -6.6850    10.1274     5.1529 H       
  48 H48           -5.6987    10.6768     2.9702 H       
  49 H49           -5.0175     9.8616    -0.1980 H       
  50 H50           -4.1162    10.7270     1.0696 H       
  51 H51           -3.2508     9.6797    -0.0804 H       
@<TRIPOS>BOND
   1    1    2 ar
   2    1    6 ar
   3    1    8 1
   4    2    3 ar
   5    2    9 1
   6    3    4 ar
   7    3   31 1
   8    4    5 ar
   9    4   32 1
  10    5    6 ar
  11    5   33 1
  12    7    8 am
  13    7    9 am
  14    7   10 2
  15    8   14 1
  16    9   11 1
  17   11   12 1
  18   11   13 1
  19   11   34 1
  20   12   35 1
  21   12   36 1
  22   12   37 1
  23   13   38 1
  24   13   39 1
  25   13   40 1
  26   14   15 ar
  27   14   19 ar
  28   15   16 ar
  29   15   41 1
  30   16   17 ar
  31   16   42 1
  32   17   18 ar
  33   17   20 1
  34   18   19 ar
  35   18   43 1
  36   19   44 1
  37   20   21 1
  38   21   22 2
  39   21   25 1
  40   22   23 1
  41   23   24 ar
  42   23   26 ar
  43   24   25 1
  44   24   29 ar
  45   25   30 1
  46   26   27 ar
  47   26   45 1
  48   27   28 ar
  49   27   46 1
  50   28   29 ar
  51   28   47 1
  52   29   48 1
  53   30   49 1
  54   30   50 1
  55   30   51 1

#	End of record

