#	Name: ASD00841843
#	Creating user name:	WinNT
#	Creation time:	15. 06. 2019 18:43

#	Modifying user name:	WinNT
#	Modification time:	15. 06. 2019 18:43

#	Program:	/corina/corina34_cracker 3.40 0067  02.08.2006

@<TRIPOS>MOLECULE
ASD00841843
  89   94    0    0    0
SMALL
NO_CHARGES


@<TRIPOS>ATOM
   1 F1            -0.0970    -3.1528     4.7121 F       
   2 C2            -0.0146     1.3805     0.0257 C.ar    
   3 C3             0.0031    -0.0065     0.0110 C.ar    
   4 C4             1.2147    -0.6823    -0.0066 C.ar    
   5 C5             2.3999     0.0270    -0.0095 C.ar    
   6 C6             2.3796     1.4097     0.0057 C.ar    
   7 C7             1.1737     2.0854     0.0228 C.ar    
   8 C8             1.2376    -2.1891    -0.0222 C.3     
   9 C9             0.4952    -2.7183    -1.2306 C.2     
  10 N10            2.6178    -2.6802    -0.0121 N.am    
  11 C11            3.4634    -2.3342    -1.0029 C.2     
  12 N12            4.7590    -2.7005    -0.9417 N.am    
  13 O13            3.0575    -1.6917    -1.9520 O.2     
  14 C14            5.6727    -2.4339    -2.0631 C.3     
  15 C15            6.9193    -1.7288    -1.5183 C.3     
  16 N16            7.4922    -2.5277    -0.4268 N.3     
  17 C17            6.5583    -2.6350     0.7020 C.3     
  18 C18            5.2982    -3.3718     0.2507 C.3     
  19 N19            8.7693    -1.9820     0.0037 N.3     
  20 C20            9.3424    -2.7813     1.0956 C.3     
  21 C21           10.7187    -2.2229     1.4649 C.3     
  22 N22           10.5826    -0.8146     1.8623 N.3     
  23 C23           10.0095    -0.0153     0.7703 C.3     
  24 C24            8.6332    -0.5737     0.4010 C.3     
  25 C25           11.8729    -0.2633     2.2971 C.3     
  26 O26            0.7751    -2.5164    -2.3934 O.2     
  27 N27           -0.5319    -3.4541    -0.7732 N.am    
  28 C28            0.4671    -2.7425     1.1545 C.ar    
  29 C29           -0.5769    -3.4886     0.6221 C.ar    
  30 C30            0.6304    -2.6280     2.5168 C.ar    
  31 C31           -0.2538    -3.2621     3.3747 C.ar    
  32 C32           -1.2998    -4.0098     2.8554 C.ar    
  33 C33           -1.4633    -4.1244     1.4883 C.ar    
  34 F34           -2.1631    -4.6290     3.6901 F       
  35 C35           -0.9831    -5.8436    -2.0621 C.ar    
  36 C36            0.1957    -5.9992    -2.7763 C.ar    
  37 C37           -1.6549    -6.9545    -1.5893 C.ar    
  38 C38           -1.1529    -8.2204    -1.8273 C.ar    
  39 C39            0.0222    -8.3783    -2.5391 C.ar    
  40 C40            0.6972    -7.2709    -3.0142 C.ar    
  41 H41            0.4123    -9.3683    -2.7237 H       
  42 O42            0.8581    -4.9081    -3.2427 O.3     
  43 C43            2.0653    -5.1438    -3.9700 C.3     
  44 C44            2.6643    -3.8068    -4.4111 C.3     
  45 S45           -1.6195    -4.2301    -1.7516 S.o2    
  46 O46           -2.7995    -4.4058    -0.9796 O.2     
  47 O47           -1.5999    -3.5447    -2.9962 O.2     
  48 O48           -1.1644    -0.7021     0.0143 O.3     
  49 C49           -3.5737    -0.8892     0.0341 C.3     
  50 C50           -2.3733     0.0595     0.0332 C.3     
  51 H51           -0.9565     1.9089     0.0349 H       
  52 H52            3.3433    -0.4986    -0.0232 H       
  53 H53            3.3073     1.9625     0.0042 H       
  54 H54            1.1604     3.1653     0.0346 H       
  55 H55            2.9231    -3.2544     0.7076 H       
  56 H56            5.9600    -3.3746    -2.5329 H       
  57 H57            5.1789    -1.7926    -2.7932 H       
  58 H58            7.6547    -1.6222    -2.3158 H       
  59 H59            6.6446    -0.7432    -1.1422 H       
  60 H60            7.0318    -3.1857     1.5148 H       
  61 H61            6.2886    -1.6369     1.0471 H       
  62 H62            4.5572    -3.3533     1.0498 H       
  63 H63            5.5467    -4.4035     0.0017 H       
  64 H64            8.6857    -2.7340     1.9643 H       
  65 H65            9.4450    -3.8173     0.7728 H       
  66 H66           11.1332    -2.7963     2.2941 H       
  67 H67           11.3835    -2.2953     0.6041 H       
  68 H68            9.9070     1.0207     1.0931 H       
  69 H69           10.6662    -0.0626    -0.0984 H       
  70 H70            8.2187    -0.0004    -0.4282 H       
  71 H71            7.9685    -0.5013     1.2618 H       
  72 H72           12.5900    -0.3278     1.4787 H       
  73 H73           11.7436     0.7799     2.5855 H       
  74 H74           12.2426    -0.8328     3.1498 H       
  75 H75            1.4469    -2.0448     2.9163 H       
  76 H76           -2.2803    -4.7080     1.0904 H       
  77 H77           -2.5728    -6.8339    -1.0332 H       
  78 H78           -1.6791    -9.0876    -1.4563 H       
  79 H79            1.6145    -7.3947    -3.5707 H       
  80 H80            2.7771    -5.6681    -3.3324 H       
  81 H81            1.8477    -5.7518    -4.8481 H       
  82 H82            3.5852    -3.9866    -4.9659 H       
  83 H83            1.9525    -3.2825    -5.0488 H       
  84 H84            2.8820    -3.1988    -3.5330 H       
  85 H85           -3.5483    -1.5082    -0.8627 H       
  86 H86           -3.5322    -1.5269     0.9171 H       
  87 H87           -4.4959    -0.3083     0.0486 H       
  88 H88           -2.3988     0.6785     0.9300 H       
  89 H89           -2.4149     0.6972    -0.8498 H       
@<TRIPOS>BOND
   1    1   31 1
   2    2    3 ar
   3    2    7 ar
   4    2   51 1
   5    3    4 ar
   6    3   48 1
   7    4    5 ar
   8    4    8 1
   9    5    6 ar
  10    5   52 1
  11    6    7 ar
  12    6   53 1
  13    7   54 1
  14    8    9 1
  15    8   10 1
  16    8   28 1
  17    9   26 2
  18    9   27 am
  19   10   11 am
  20   10   55 1
  21   11   12 am
  22   11   13 2
  23   12   14 1
  24   12   18 1
  25   14   15 1
  26   14   56 1
  27   14   57 1
  28   15   16 1
  29   15   58 1
  30   15   59 1
  31   16   17 1
  32   16   19 1
  33   17   18 1
  34   17   60 1
  35   17   61 1
  36   18   62 1
  37   18   63 1
  38   19   20 1
  39   19   24 1
  40   20   21 1
  41   20   64 1
  42   20   65 1
  43   21   22 1
  44   21   66 1
  45   21   67 1
  46   22   23 1
  47   22   25 1
  48   23   24 1
  49   23   68 1
  50   23   69 1
  51   24   70 1
  52   24   71 1
  53   25   72 1
  54   25   73 1
  55   25   74 1
  56   27   45 am
  57   27   29 1
  58   28   29 ar
  59   28   30 ar
  60   29   33 ar
  61   30   31 ar
  62   30   75 1
  63   31   32 ar
  64   32   33 ar
  65   32   34 1
  66   33   76 1
  67   35   36 ar
  68   35   37 ar
  69   35   45 1
  70   36   42 1
  71   36   40 ar
  72   37   38 ar
  73   37   77 1
  74   38   39 ar
  75   38   78 1
  76   39   40 ar
  77   39   41 1
  78   40   79 1
  79   42   43 1
  80   43   44 1
  81   43   80 1
  82   43   81 1
  83   44   82 1
  84   44   83 1
  85   44   84 1
  86   45   46 2
  87   45   47 2
  88   48   50 1
  89   49   50 1
  90   49   85 1
  91   49   86 1
  92   49   87 1
  93   50   88 1
  94   50   89 1

#	End of record

