#	Name: ASD01883861
#	Creating user name:	WinNT
#	Creation time:	15. 06. 2019 19:47

#	Modifying user name:	WinNT
#	Modification time:	15. 06. 2019 19:47

#	Program:	/corina/corina34_cracker 3.40 0067  02.08.2006

@<TRIPOS>MOLECULE
ASD01883861
  50   53    0    0    0
SMALL
NO_CHARGES


@<TRIPOS>ATOM
   1 O1            -0.2752     1.2946     0.0311 O.3     
   2 C2            -0.0974    -0.0510     0.0470 C.2     
   3 C3             1.3041    -1.9793    -0.1381 C.2     
   4 C4             1.1442    -0.5825    -0.1590 C.2     
   5 C5            -1.1923    -0.9084     0.2819 C.2     
   6 C6            -1.0181    -2.2449     0.2985 C.2     
   7 N7             1.9714    -4.0039    -0.1875 N.2     
   8 N8             2.3474    -2.7784    -0.2988 N.2     
   9 N9             0.2162    -2.7866     0.0889 N.pl3   
  10 C10            0.6872    -4.0654     0.0487 C.2     
  11 C11           -0.1244    -5.3205     0.2409 C.3     
  12 C12           -0.1411    -5.6949     1.7243 C.3     
  13 C13           -1.0133    -6.8797     2.1441 C.3     
  14 C14            0.5101    -7.0198     2.1259 C.3     
  15 C15            2.3277     0.3171    -0.4060 C.3     
  16 F16            1.8912     1.6415    -0.5192 F       
  17 F17            3.2248     0.2115     0.6624 F       
  18 F18            2.9659    -0.0664    -1.5904 F       
  19 C19           -1.0890     1.8292    -1.0148 C.3     
  20 C20           -1.2809     3.3311    -0.7946 C.3     
  21 C21           -2.1925     3.8826    -1.8604 C.ar    
  22 C22           -3.2838     5.7465    -2.8938 C.ar    
  23 C23           -3.8661     4.8944    -3.8152 C.ar    
  24 C24           -3.6147     3.5352    -3.7550 C.ar    
  25 C25           -2.7782     3.0300    -2.7776 C.ar    
  26 C26           -2.4471     5.2402    -1.9171 C.ar    
  27 C27           -1.9038     3.5692     0.5824 C.3     
  28 Cl28          -4.9175     5.5295    -5.0419 Cl      
  29 C29            0.0755     4.0349    -0.8694 C.3     
  30 H30           -2.1747    -0.4922     0.4496 H       
  31 H31           -1.8631    -2.8926     0.4796 H       
  32 H32           -1.1448    -5.1495    -0.1021 H       
  33 H33            0.3208    -6.1327    -0.3338 H       
  34 H34           -0.0564    -4.8606     2.4207 H       
  35 H35           -1.5021    -6.8252     3.1168 H       
  36 H36           -1.5752    -7.3925     1.3635 H       
  37 H37            0.9505    -7.6248     1.3334 H       
  38 H38            1.0236    -7.0574     3.0867 H       
  39 H39           -0.6020     1.6622    -1.9755 H       
  40 H40           -2.0601     1.3341    -1.0087 H       
  41 H41           -3.4793     6.8076    -2.9406 H       
  42 H42           -4.0692     2.8695    -4.4738 H       
  43 H43           -2.5819     1.9691    -2.7305 H       
  44 H44           -1.9925     5.9053    -1.1978 H       
  45 H45           -1.2445     3.1703     1.3533 H       
  46 H46           -2.0405     4.6391     0.7393 H       
  47 H47           -2.8702     3.0677     0.6357 H       
  48 H48            0.5193     3.8653    -1.8504 H       
  49 H49           -0.0612     5.1049    -0.7126 H       
  50 H50            0.7348     3.6360    -0.0985 H       
@<TRIPOS>BOND
   1    1    2 1
   2    1   19 1
   3    2    5 1
   4    2    4 2
   5    3    4 1
   6    3    9 1
   7    3    8 2
   8    4   15 1
   9    5    6 2
  10    5   30 1
  11    6    9 1
  12    6   31 1
  13    7    8 1
  14    7   10 2
  15    9   10 1
  16   10   11 1
  17   11   12 1
  18   11   32 1
  19   11   33 1
  20   12   13 1
  21   12   14 1
  22   12   34 1
  23   13   14 1
  24   13   35 1
  25   13   36 1
  26   14   37 1
  27   14   38 1
  28   15   16 1
  29   15   17 1
  30   15   18 1
  31   19   20 1
  32   19   39 1
  33   19   40 1
  34   20   21 1
  35   20   27 1
  36   20   29 1
  37   21   26 ar
  38   21   25 ar
  39   22   23 ar
  40   22   26 ar
  41   22   41 1
  42   23   24 ar
  43   23   28 1
  44   24   25 ar
  45   24   42 1
  46   25   43 1
  47   26   44 1
  48   27   45 1
  49   27   46 1
  50   27   47 1
  51   29   48 1
  52   29   49 1
  53   29   50 1

#	End of record

