#	Name: ASD01870438
#	Creating user name:	WinNT
#	Creation time:	15. 06. 2019 19:39

#	Modifying user name:	WinNT
#	Modification time:	15. 06. 2019 19:39

#	Program:	/corina/corina34_cracker 3.40 0067  02.08.2006

@<TRIPOS>MOLECULE
ASD01870438
  61   66    0    0    0
SMALL
NO_CHARGES


@<TRIPOS>ATOM
   1 N1            -0.6067     1.2333     0.3954 N.am    
   2 C2            -0.7713    -0.0969     0.5370 C.2     
   3 C3            -2.1527    -0.6694     0.7246 C.3     
   4 O4             0.1922    -0.8330     0.5134 O.2     
   5 C5            -2.1738    -2.2017     0.8714 C.3     
   6 N6            -3.1662    -1.9851     1.9419 N.am    
   7 C7            -2.6503    -0.6231     2.1806 C.3     
   8 S8            -4.3738    -2.9019     2.6079 S.o2    
   9 C9            -3.6672    -3.8006     3.9487 C.ar    
  10 C10           -2.6769    -4.7642     3.7096 C.ar    
  11 O11           -5.3008    -1.9898     3.1805 O.2     
  12 O12           -4.7351    -3.8638     1.6263 O.2     
  13 C13           -4.0747    -3.5609     5.2262 C.ar    
  14 C14           -3.5263    -4.2622     6.2986 C.ar    
  15 C15           -2.5667    -5.2083     6.1029 C.ar    
  16 C16           -2.1182    -5.4794     4.8007 C.ar    
  17 C17            0.6769     1.9203     0.2064 C.3     
  18 C18           -1.1319    -6.4437     4.5372 C.ar    
  19 N19           -0.7448    -6.6626     3.3024 N.ar    
  20 C20           -1.2472    -6.0061     2.2655 C.ar    
  21 C21           -2.2096    -5.0543     2.4147 C.ar    
  22 C22           -0.7410    -6.3248     0.8823 C.3     
  23 C23            0.4007     3.4338     0.1609 C.3     
  24 C24           -1.0121     3.5636     0.8156 C.3     
  25 C25           -1.6850     2.2352     0.3984 C.3     
  26 C26            1.3242     4.1437     1.1677 C.3     
  27 N27            0.6215     4.1971     2.4609 N.3     
  28 C28           -0.6760     3.5061     2.3220 C.3     
  29 C29            1.3881     3.6207     3.4693 C.ar    
  30 C30            2.7759     3.7594     3.4810 C.ar    
  31 C31            3.4992     3.1728     4.4980 C.ar    
  32 N32            2.8945     2.4880     5.4507 N.ar    
  33 C33            1.5838     2.3341     5.4748 C.ar    
  34 C34            0.7881     2.8942     4.4976 C.ar    
  35 H35           -2.8727    -0.2880     0.0006 H       
  36 H36           -2.5734    -2.7211     0.0004 H       
  37 H37           -1.2320    -2.6223     1.2239 H       
  38 H38           -1.8485    -0.5800     2.9178 H       
  39 H39           -3.4304     0.1179     2.3549 H       
  40 H40           -4.8342    -2.8156     5.4110 H       
  41 H41           -3.8678    -4.0515     7.3013 H       
  42 H42           -2.1508    -5.7433     6.9439 H       
  43 H43            1.3435     1.6917     1.0379 H       
  44 H44            1.1322     1.6000    -0.7307 H       
  45 H45           -0.6925    -7.0040     5.3492 H       
  46 H46           -2.6050    -4.5315     1.5563 H       
  47 H47           -1.3476    -7.1192     0.4475 H       
  48 H48           -0.8065    -5.4342     0.2572 H       
  49 H49            0.2972    -6.6515     0.9416 H       
  50 H50            0.4497     3.8474    -0.8463 H       
  51 H51           -1.5661     4.4506     0.5084 H       
  52 H52           -2.1224     2.3302    -0.5954 H       
  53 H53           -2.4505     1.9568     1.1228 H       
  54 H54            2.2533     3.5838     1.2751 H       
  55 H55            1.5393     5.1548     0.8222 H       
  56 H56           -1.4425     4.0226     2.8997 H       
  57 H57           -0.5891     2.4703     2.6500 H       
  58 H58            3.2770     4.3180     2.7043 H       
  59 H59            4.5743     3.2746     4.5149 H       
  60 H60            1.1283     1.7658     6.2723 H       
  61 H61           -0.2838     2.7647     4.5234 H       
@<TRIPOS>BOND
   1    1    2 am
   2    1   17 1
   3    1   25 1
   4    2    3 1
   5    2    4 2
   6    3    5 1
   7    3    7 1
   8    3   35 1
   9    5    6 1
  10    5   36 1
  11    5   37 1
  12    6    7 1
  13    6    8 am
  14    7   38 1
  15    7   39 1
  16    8    9 1
  17    8   11 2
  18    8   12 2
  19    9   13 ar
  20    9   10 ar
  21   10   16 ar
  22   10   21 ar
  23   13   14 ar
  24   13   40 1
  25   14   15 ar
  26   14   41 1
  27   15   16 ar
  28   15   42 1
  29   16   18 ar
  30   17   23 1
  31   17   43 1
  32   17   44 1
  33   18   19 ar
  34   18   45 1
  35   19   20 ar
  36   20   21 ar
  37   20   22 1
  38   21   46 1
  39   22   47 1
  40   22   48 1
  41   22   49 1
  42   23   24 1
  43   23   26 1
  44   23   50 1
  45   24   25 1
  46   24   28 1
  47   24   51 1
  48   25   52 1
  49   25   53 1
  50   26   27 1
  51   26   54 1
  52   26   55 1
  53   27   28 1
  54   27   29 1
  55   28   56 1
  56   28   57 1
  57   29   30 ar
  58   29   34 ar
  59   30   31 ar
  60   30   58 1
  61   31   32 ar
  62   31   59 1
  63   32   33 ar
  64   33   34 ar
  65   33   60 1
  66   34   61 1

#	End of record

