#	Name: ASD01883824
#	Creating user name:	WinNT
#	Creation time:	15. 06. 2019 19:47

#	Modifying user name:	WinNT
#	Modification time:	15. 06. 2019 19:47

#	Program:	/corina/corina34_cracker 3.40 0067  02.08.2006

@<TRIPOS>MOLECULE
ASD01883824
  54   56    0    0    0
SMALL
NO_CHARGES


@<TRIPOS>ATOM
   1 N1            -0.0162     1.3417     0.0094 N.am    
   2 C2             0.0021    -0.0041     0.0020 C.2     
   3 C3            -1.2163    -0.7275     0.0098 C.2     
   4 C4            -2.4262    -0.0112     0.0252 C.2     
   5 C5            -2.3787     1.3968     0.0323 C.2     
   6 C6            -1.1850     2.0324     0.0299 C.2     
   7 O7             1.0657    -0.6000    -0.0117 O.2     
   8 C8            -1.2154    -2.1594     0.0016 C.1     
   9 N9            -1.2147    -3.2954    -0.0049 N.1     
  10 C10            1.2513     2.0764     0.0013 C.3     
  11 C11            1.6787     2.3399    -1.4440 C.3     
  12 C12           -3.7220    -0.7214     0.0332 C.ar    
  13 C13           -4.5706    -0.6152     1.1384 C.ar    
  14 C14           -5.7772    -1.2769     1.1451 C.ar    
  15 C15           -6.1535    -2.0539     0.0484 C.ar    
  16 C16           -5.3067    -2.1606    -1.0559 C.ar    
  17 C17           -4.1022    -1.4949    -1.0667 C.ar    
  18 C18           -7.4527    -2.7665     0.0568 C.ar    
  19 C19            3.0024     3.1072    -1.4525 C.3     
  20 C20            4.1050     2.2286    -0.8581 C.3     
  21 C21            3.3668     3.4794    -2.8911 C.3     
  22 C22           -7.8301    -3.5434    -1.0387 C.ar    
  23 C23           -9.0426    -4.2067    -1.0278 C.ar    
  24 C24           -9.8860    -4.0981     0.0776 C.ar    
  25 C25           -9.5091    -3.3239     1.1672 C.ar    
  26 C26           -8.2971    -2.6657     1.1622 C.ar    
  27 N27          -11.1120    -4.7688     0.0886 N.pl3   
  28 O28           -9.4132    -4.9646    -2.0946 O.3     
  29 C29           -8.5005    -5.0303    -3.1922 C.3     
  30 H30           -3.2950     1.9682     0.0437 H       
  31 H31           -1.1610     3.1122     0.0354 H       
  32 H32            1.1242     3.0258     0.5214 H       
  33 H33            2.0168     1.4859     0.5046 H       
  34 H34            1.8057     1.3905    -1.9642 H       
  35 H35            0.9132     2.9304    -1.9474 H       
  36 H36           -4.2794    -0.0143     1.9873 H       
  37 H37           -6.4330    -1.1953     1.9993 H       
  38 H38           -5.5985    -2.7623    -1.9039 H       
  39 H39           -3.4471    -1.5775    -1.9213 H       
  40 H40            2.9002     4.0145    -0.8572 H       
  41 H41            4.2071     1.3213    -1.4534 H       
  42 H42            5.0480     2.7753    -0.8642 H       
  43 H43            3.8453     1.9634     0.1668 H       
  44 H44            2.5813     4.1053    -3.3146 H       
  45 H45            4.3098     4.0261    -2.8971 H       
  46 H46            3.4690     2.5721    -3.4864 H       
  47 H47           -7.1760    -3.6262    -1.8941 H       
  48 H48          -10.1640    -3.2410     2.0220 H       
  49 H49           -8.0059    -2.0644     2.0108 H       
  50 H50          -11.3759    -5.3095    -0.6723 H       
  51 H51          -11.6990    -4.6937     0.8572 H       
  52 H52           -8.3354    -4.0282    -3.5880 H       
  53 H53           -7.5525    -5.4472    -2.8520 H       
  54 H54           -8.9172    -5.6656    -3.9738 H       
@<TRIPOS>BOND
   1    1    2 am
   2    1   10 1
   3    1    6 1
   4    2    3 1
   5    2    7 2
   6    3    4 2
   7    3    8 1
   8    4    5 1
   9    4   12 1
  10    5    6 2
  11    5   30 1
  12    6   31 1
  13    8    9 3
  14   10   11 1
  15   10   32 1
  16   10   33 1
  17   11   19 1
  18   11   34 1
  19   11   35 1
  20   12   13 ar
  21   12   17 ar
  22   13   14 ar
  23   13   36 1
  24   14   15 ar
  25   14   37 1
  26   15   16 ar
  27   15   18 1
  28   16   17 ar
  29   16   38 1
  30   17   39 1
  31   18   22 ar
  32   18   26 ar
  33   19   20 1
  34   19   21 1
  35   19   40 1
  36   20   41 1
  37   20   42 1
  38   20   43 1
  39   21   44 1
  40   21   45 1
  41   21   46 1
  42   22   23 ar
  43   22   47 1
  44   23   24 ar
  45   23   28 1
  46   24   25 ar
  47   24   27 1
  48   25   26 ar
  49   25   48 1
  50   26   49 1
  51   27   50 1
  52   27   51 1
  53   28   29 1
  54   29   52 1
  55   29   53 1
  56   29   54 1

#	End of record

