#	Name: ASD01820116
#	Creating user name:	WinNT
#	Creation time:	15. 06. 2019 19:36

#	Modifying user name:	WinNT
#	Modification time:	15. 06. 2019 19:36

#	Program:	/corina/corina34_cracker 3.40 0067  02.08.2006

@<TRIPOS>MOLECULE
ASD01820116
  60   63    0    0    0
SMALL
NO_CHARGES


@<TRIPOS>ATOM
   1 C1             0.1075     1.3553     0.5870 C.3     
   2 C2            -0.0576    -0.0781     0.0781 C.3     
   3 C3             0.7992    -1.0217     0.9245 C.3     
   4 C4            -1.5271    -0.4907     0.1838 C.3     
   5 C5             0.3900    -0.1553    -1.3830 C.3     
   6 H6            -0.2821     0.4403    -2.0008 H       
   7 N7             1.7541     0.3650    -1.5039 N.am    
   8 C8             2.1820     0.8675    -2.6790 C.2     
   9 O9             1.4104     0.9698    -3.6138 O.2     
  10 C10            3.5825     1.2924    -2.8313 C.2     
  11 C11            4.0624     1.7001    -4.0571 C.2     
  12 N12            5.3343     2.0945    -4.2335 N.pl3   
  13 C13            5.7399     2.4928    -5.5099 C.ar    
  14 N14            5.7189     3.7753    -5.8334 N.ar    
  15 C15            6.0931     4.1953    -7.0266 C.ar    
  16 C16            6.5245     3.3015    -7.9903 C.ar    
  17 F17            6.9059     3.7428    -9.2090 F       
  18 C18            6.5618     1.9449    -7.6911 C.ar    
  19 C19            6.1676     1.5367    -6.4270 C.ar    
  20 F20            6.1927     0.2285    -6.0909 F       
  21 C21            6.2558     2.1235    -3.2099 C.ar    
  22 N22            7.5005     2.5226    -3.4393 N.ar    
  23 C23            8.4038     2.5601    -2.4742 C.ar    
  24 C24            8.0906     2.1811    -1.1689 C.ar    
  25 C25            6.8201     1.7609    -0.8773 C.ar    
  26 C26            5.8805     1.7297    -1.9132 C.ar    
  27 C27            4.4947     1.2953    -1.6751 C.2     
  28 O28            4.1190     0.9484    -0.5687 O.2     
  29 N29            9.6938     2.9860    -2.7672 N.am    
  30 C30           10.0792     3.6666    -4.0091 C.3     
  31 C31           11.4473     4.3203    -3.7134 C.3     
  32 H32           12.0955     4.2814    -4.5888 H       
  33 O33           11.2839     5.6658    -3.2606 O.3     
  34 C34           11.9904     3.4169    -2.5820 C.3     
  35 C35           10.7477     2.8327    -1.9471 C.2     
  36 O36           10.7087     2.3011    -0.8579 O.2     
  37 C37            0.3563    -1.6117    -1.8504 C.3     
  38 F38           -0.9407    -2.1167    -1.7099 F       
  39 F39            0.7400    -1.6792    -3.1941 F       
  40 F40            1.2390    -2.3709    -1.0747 F       
  41 H41            1.1545     1.6492     0.5117 H       
  42 H42           -0.5029     2.0275    -0.0160 H       
  43 H43           -0.2113     1.4103     1.6279 H       
  44 H44            0.6225    -0.8231     1.9816 H       
  45 H45            0.5330    -2.0545     0.6993 H       
  46 H46            1.8525    -0.8598     0.6955 H       
  47 H47           -2.1144     0.0668    -0.5459 H       
  48 H48           -1.6199    -1.5585    -0.0146 H       
  49 H49           -1.8940    -0.2743     1.1871 H       
  50 H50            2.3494     0.3479    -0.7383 H       
  51 H51            3.3933     1.7023    -4.9048 H       
  52 H52            6.0620     5.2506    -7.2541 H       
  53 H53            6.8944     1.2260    -8.4252 H       
  54 H54            8.8433     2.2183    -0.3952 H       
  55 H55            6.5509     1.4619     0.1250 H       
  56 H56           10.1734     2.9453    -4.8209 H       
  57 H57            9.3440     4.4296    -4.2649 H       
  58 H58           12.1155     6.1177    -3.0621 H       
  59 H59           12.6204     2.6280    -2.9930 H       
  60 H60           12.5450     4.0090    -1.8541 H       
@<TRIPOS>BOND
   1    1    2 1
   2    1   41 1
   3    1   42 1
   4    1   43 1
   5    2    3 1
   6    2    4 1
   7    2    5 1
   8    3   44 1
   9    3   45 1
  10    3   46 1
  11    4   47 1
  12    4   48 1
  13    4   49 1
  14    5    6 1
  15    5    7 1
  16    5   37 1
  17    7    8 am
  18    7   50 1
  19    8    9 2
  20    8   10 1
  21   10   27 1
  22   10   11 2
  23   11   12 1
  24   11   51 1
  25   12   13 1
  26   12   21 1
  27   13   19 ar
  28   13   14 ar
  29   14   15 ar
  30   15   16 ar
  31   15   52 1
  32   16   17 1
  33   16   18 ar
  34   18   19 ar
  35   18   53 1
  36   19   20 1
  37   21   26 ar
  38   21   22 ar
  39   22   23 ar
  40   23   24 ar
  41   23   29 1
  42   24   25 ar
  43   24   54 1
  44   25   26 ar
  45   25   55 1
  46   26   27 1
  47   27   28 2
  48   29   35 am
  49   29   30 1
  50   30   31 1
  51   30   56 1
  52   30   57 1
  53   31   32 1
  54   31   33 1
  55   31   34 1
  56   33   58 1
  57   34   35 1
  58   34   59 1
  59   34   60 1
  60   35   36 2
  61   37   38 1
  62   37   39 1
  63   37   40 1

#	End of record

