#	Name: ASD01917393
#	Creating user name:	WinNT
#	Creation time:	15. 06. 2019 20:09

#	Modifying user name:	WinNT
#	Modification time:	15. 06. 2019 20:09

#	Program:	/corina/corina34_cracker 3.40 0067  02.08.2006

@<TRIPOS>MOLECULE
ASD01917393
  48   52    0    0    0
SMALL
NO_CHARGES


@<TRIPOS>ATOM
   1 C1            -0.0171     1.4096     0.0098 C.ar    
   2 C2             0.0021    -0.0041     0.0020 C.ar    
   3 C3            -1.1911    -0.7250     0.0414 C.ar    
   4 C4            -2.3838    -0.0626     0.0741 C.ar    
   5 C5            -2.4209     1.3387     0.0658 C.ar    
   6 C6            -1.2414     2.0760     0.0357 C.ar    
   7 N7             1.1596     2.0750     0.0021 N.2     
   8 C8             2.3197     1.4677    -0.0397 C.2     
   9 N9             2.4203     0.1197    -0.1574 N.am    
  10 C10            1.3107    -0.6630    -0.0625 C.2     
  11 O11            1.4021    -1.8766    -0.0325 O.2     
  12 C12           -3.7219     2.0377     0.0892 C.2     
  13 C13            3.5355     2.3454     0.1021 C.3     
  14 C14            4.7921     1.6932    -0.4307 C.3     
  15 C15            4.8968     0.2368    -0.0268 C.3     
  16 C16            3.6800    -0.5615    -0.4366 C.3     
  17 C17            6.1352    -0.3730    -0.6866 C.3     
  18 C18            5.0558     0.1536     1.4926 C.3     
  19 N19           -3.8899     3.3409     0.0839 N.2     
  20 C20           -5.1985     3.6083     0.1100 C.2     
  21 C21           -5.8632     2.4200     0.1322 C.2     
  22 O22           -4.9281     1.4447     0.1136 O.3     
  23 C23           -7.3271     2.2329     0.1647 C.ar    
  24 N24           -8.1276     3.2937     0.1746 N.ar    
  25 C25           -9.4388     3.1684     0.2033 C.ar    
  26 C26          -10.0329     1.9201     0.2250 C.ar    
  27 C27           -9.2342     0.7842     0.2157 C.ar    
  28 C28           -7.8608     0.9424     0.1791 C.ar    
  29 H29           -1.1712    -1.8048     0.0456 H       
  30 H30           -3.3067    -0.6227     0.1063 H       
  31 H31           -1.2739     3.1555     0.0321 H       
  32 H32            3.3639     3.2747    -0.4412 H       
  33 H33            3.6801     2.5785     1.1570 H       
  34 H34            4.7909     1.7593    -1.5187 H       
  35 H35            5.6594     2.2300    -0.0464 H       
  36 H36            3.6893    -1.5118     0.0972 H       
  37 H37            3.7385    -0.7638    -1.5061 H       
  38 H38            7.0242     0.1652    -0.3579 H       
  39 H39            6.2194    -1.4218    -0.4019 H       
  40 H40            6.0443    -0.2969    -1.7702 H       
  41 H41            4.1898     0.6080     1.9740 H       
  42 H42            5.1320    -0.8913     1.7933 H       
  43 H43            5.9588     0.6850     1.7930 H       
  44 H44           -5.6483     4.5901     0.1129 H       
  45 H45          -10.0582     4.0530     0.2105 H       
  46 H46          -11.1088     1.8293     0.2492 H       
  47 H47           -9.6759    -0.2012     0.2321 H       
  48 H48           -7.2102     0.0804     0.1706 H       
@<TRIPOS>BOND
   1    1    2 ar
   2    1    7 1
   3    1    6 ar
   4    2    3 ar
   5    2   10 1
   6    3    4 ar
   7    3   29 1
   8    4    5 ar
   9    4   30 1
  10    5    6 ar
  11    5   12 1
  12    6   31 1
  13    7    8 2
  14    8    9 1
  15    8   13 1
  16    9   10 am
  17    9   16 1
  18   10   11 2
  19   12   19 2
  20   12   22 1
  21   13   14 1
  22   13   32 1
  23   13   33 1
  24   14   15 1
  25   14   34 1
  26   14   35 1
  27   15   16 1
  28   15   17 1
  29   15   18 1
  30   16   36 1
  31   16   37 1
  32   17   38 1
  33   17   39 1
  34   17   40 1
  35   18   41 1
  36   18   42 1
  37   18   43 1
  38   19   20 1
  39   20   21 2
  40   20   44 1
  41   21   23 1
  42   21   22 1
  43   23   24 ar
  44   23   28 ar
  45   24   25 ar
  46   25   26 ar
  47   25   45 1
  48   26   27 ar
  49   26   46 1
  50   27   28 ar
  51   27   47 1
  52   28   48 1

#	End of record

