#	Name: ASD05060029
#	Creating user name:	WinNT
#	Creation time:	15. 06. 2019 20:56

#	Modifying user name:	WinNT
#	Modification time:	15. 06. 2019 20:56

#	Program:	/corina/corina34_cracker 3.40 0067  02.08.2006

@<TRIPOS>MOLECULE
ASD05060029
 122  122    0    0    0
SMALL
NO_CHARGES


@<TRIPOS>ATOM
   1 N1            -2.5001     4.9690    -3.0148 N.3     
   2 N2            -2.5247     3.6569    -3.6408 N.3     
   3 C3            -3.8381     3.0198    -3.4761 C.3     
   4 C4            -3.8923     2.3190    -2.1430 C.2     
   5 N5            -5.0165     2.4467    -1.3777 N.am    
   6 C6            -4.9892     1.7278    -0.0836 C.3     
   7 C7            -5.9861     2.3712     0.8455 C.2     
   8 N8            -5.7375     2.3739     2.1838 N.am    
   9 C9            -6.7497     3.0201     3.0426 C.3     
  10 C10           -6.0589     3.9941     3.9617 C.2     
  11 N11           -6.6735     5.1806     4.2445 N.am    
  12 C12           -5.9317     6.0788     5.1581 C.3     
  13 C13           -5.7928     7.4276     4.5003 C.2     
  14 N14           -4.6973     8.1876     4.7750 N.am    
  15 C15           -4.6159     9.4984     4.1005 C.3     
  16 C16           -3.2769     9.6122     3.4184 C.2     
  17 N17           -3.1401    10.4892     2.3802 N.am    
  18 C18           -1.7954    10.5382     1.7625 C.3     
  19 C19           -1.9415    10.3350     0.2764 C.2     
  20 C20           -1.0040     9.4360    -0.4466 C.2     
  21 C21           -1.1522     9.2304    -1.9323 C.3     
  22 N22           -0.8732     7.8152    -2.2477 N.am    
  23 C23           -1.6529     7.2387    -3.2027 C.2     
  24 C24           -1.4179     5.7952    -3.5666 C.3     
  25 O25           -2.5248     7.8775    -3.7529 O.2     
  26 O26           -0.1234     8.8705     0.1565 O.2     
  27 O27           -2.8205    10.9024    -0.3273 O.2     
  28 O28           -2.3379     8.9376     3.7847 O.2     
  29 O29           -6.6447     7.8301     3.7367 O.2     
  30 O30           -4.9768     3.7295     4.4412 O.2     
  31 O31           -6.9963     2.8792     0.4069 O.2     
  32 O32           -2.9548     1.6533    -1.7569 O.2     
  33 C33           -0.0787     5.3347    -2.9874 C.3     
  34 C34           -4.9336     4.0862    -3.5366 C.3     
  35 C35           -4.8793     4.7968    -4.8904 C.3     
  36 C36           -5.2204     3.8026    -6.0023 C.3     
  37 C37           -5.8908     5.9447    -4.9048 C.3     
  38 C38           -7.7604     3.7673     2.1702 C.3     
  39 C39           -7.0226     4.7660     1.2763 C.3     
  40 C40           -7.9715     5.2759     0.1898 C.3     
  41 C41           -8.5196     2.7658     1.2975 C.3     
  42 C42           -5.3641     0.2608    -0.3031 C.3     
  43 C43           -4.2946    -0.4159    -1.1628 C.3     
  44 C44           -4.6696    -1.8829    -1.3823 C.3     
  45 C45           -3.6000    -2.5596    -2.2420 C.3     
  46 N46           -3.9600    -3.9681    -2.4527 N.3     
  47 C47           -5.7323     9.6099     3.0602 C.3     
  48 C48           -5.5416     8.5526     2.0034 C.2     
  49 O49           -4.6051     7.7854     2.0752 O.2     
  50 N50           -6.4119     8.4595     0.9785 N.am    
  51 C51           -6.7509     4.8941     7.1766 C.2     
  52 C52           -6.7022     6.2252     6.4718 C.3     
  53 O53           -6.2234     3.9275     6.6792 O.2     
  54 O54           -7.3802     4.7822     8.3569 O.3     
  55 C55           -0.9178    12.0585     3.5140 C.2     
  56 C56           -1.1548    11.9009     2.0341 C.3     
  57 O57           -1.2293    11.1720     4.2735 O.2     
  58 O58           -0.3606    13.1838     3.9883 O.3     
  59 C59           -3.5445     8.6136    -1.7190 C.2     
  60 C60           -2.5798     9.5788    -2.3582 C.3     
  61 O61           -3.1428     7.7917    -0.9296 O.2     
  62 O62           -4.8500     8.6668    -2.0265 O.3     
  63 H63           -3.3919     5.4313    -3.1090 H       
  64 H64           -2.2715     3.7166    -4.6157 H       
  65 H65           -3.9928     2.2942    -4.2746 H       
  66 H66           -5.7805     2.9721    -1.6626 H       
  67 H67           -3.9910     1.7920     0.3495 H       
  68 H68           -4.9364     1.9716     2.5543 H       
  69 H69           -7.2644     2.2625     3.6336 H       
  70 H70           -7.5369     5.4186     3.8719 H       
  71 H71           -4.9430     5.6645     5.3553 H       
  72 H72           -4.0053     7.8833     5.3827 H       
  73 H73           -4.7195    10.2952     4.8370 H       
  74 H74           -3.8738    11.0419     2.0688 H       
  75 H75           -1.1717     9.7480     2.1804 H       
  76 H76           -0.4449     9.8689    -2.4616 H       
  77 H77           -0.1699     7.3217    -1.7975 H       
  78 H78           -1.3993     5.6923    -4.6515 H       
  79 H79            0.0911     4.2906    -3.2504 H       
  80 H80            0.7242     5.9478    -3.3968 H       
  81 H81           -0.0974     5.4377    -1.9025 H       
  82 H82           -5.9080     3.6135    -3.4131 H       
  83 H83           -4.7783     4.8123    -2.7386 H       
  84 H84           -3.8772     5.1935    -5.0527 H       
  85 H85           -6.2226     3.4059    -5.8400 H       
  86 H86           -5.1818     4.3088    -6.9668 H       
  87 H87           -4.4999     2.9848    -5.9920 H       
  88 H88           -5.6478     6.6530    -4.1127 H       
  89 H89           -5.8521     6.4509    -5.8693 H       
  90 H90           -6.8930     5.5480    -4.7426 H       
  91 H91           -8.4653     4.3016     2.8072 H       
  92 H92           -6.6754     5.6054     1.8787 H       
  93 H93           -6.1680     4.2747     0.8110 H       
  94 H94           -8.3186     4.4364    -0.4127 H       
  95 H95           -8.8260     5.7671     0.6550 H       
  96 H96           -7.4458     5.9874    -0.4471 H       
  97 H97           -7.8775     1.9118     1.0820 H       
  98 H98           -9.4107     2.4262     1.8254 H       
  99 H99           -8.8114     3.2458     0.3635 H       
 100 H100          -5.4300    -0.2454     0.6600 H       
 101 H101          -6.3274     0.2039    -0.8101 H       
 102 H102          -4.2287     0.0903    -2.1259 H       
 103 H103          -3.3314    -0.3590    -0.6558 H       
 104 H104          -4.7355    -2.3891    -0.4192 H       
 105 H105          -5.6328    -1.9397    -1.8893 H       
 106 H106          -3.5341    -2.0534    -3.2050 H       
 107 H107          -2.6368    -2.5027    -1.7350 H       
 108 H108          -4.8783    -4.0491    -2.8630 H       
 109 H109          -3.2686    -4.4373    -3.0182 H       
 110 H110          -6.6975     9.4678     3.5464 H       
 111 H111          -5.7004    10.5962     2.5973 H       
 112 H112          -7.1610     9.0731     0.9211 H       
 113 H113          -6.2892     7.7790     0.2983 H       
 114 H114          -6.2009     6.9549     7.1077 H       
 115 H115          -7.7172     6.5626     6.2620 H       
 116 H116          -7.3849     3.9083     8.7708 H       
 117 H117          -0.2043    11.9675     1.5048 H       
 118 H118          -1.8204    12.6910     1.6865 H       
 119 H119          -0.2284    13.2389     4.9447 H       
 120 H120          -2.8166    10.5939    -2.0394 H       
 121 H121          -2.6623     9.5102    -3.4429 H       
 122 H122          -5.4300     8.0272    -1.5911 H       
@<TRIPOS>BOND
   1    1    2 1
   2    1   24 1
   3    1   63 1
   4    2    3 1
   5    2   64 1
   6    3    4 1
   7    3   34 1
   8    3   65 1
   9    4    5 am
  10    4   32 2
  11    5    6 1
  12    5   66 1
  13    6    7 1
  14    6   42 1
  15    6   67 1
  16    7    8 am
  17    7   31 2
  18    8    9 1
  19    8   68 1
  20    9   10 1
  21    9   38 1
  22    9   69 1
  23   10   11 am
  24   10   30 2
  25   11   12 1
  26   11   70 1
  27   12   13 1
  28   12   52 1
  29   12   71 1
  30   13   14 am
  31   13   29 2
  32   14   15 1
  33   14   72 1
  34   15   16 1
  35   15   47 1
  36   15   73 1
  37   16   17 am
  38   16   28 2
  39   17   18 1
  40   17   74 1
  41   18   19 1
  42   18   56 1
  43   18   75 1
  44   19   20 1
  45   19   27 2
  46   20   21 1
  47   20   26 2
  48   21   22 1
  49   21   60 1
  50   21   76 1
  51   22   23 am
  52   22   77 1
  53   23   24 1
  54   23   25 2
  55   24   33 1
  56   24   78 1
  57   33   79 1
  58   33   80 1
  59   33   81 1
  60   34   35 1
  61   34   82 1
  62   34   83 1
  63   35   36 1
  64   35   37 1
  65   35   84 1
  66   36   85 1
  67   36   86 1
  68   36   87 1
  69   37   88 1
  70   37   89 1
  71   37   90 1
  72   38   39 1
  73   38   41 1
  74   38   91 1
  75   39   40 1
  76   39   92 1
  77   39   93 1
  78   40   94 1
  79   40   95 1
  80   40   96 1
  81   41   97 1
  82   41   98 1
  83   41   99 1
  84   42   43 1
  85   42  100 1
  86   42  101 1
  87   43   44 1
  88   43  102 1
  89   43  103 1
  90   44   45 1
  91   44  104 1
  92   44  105 1
  93   45   46 1
  94   45  106 1
  95   45  107 1
  96   46  108 1
  97   46  109 1
  98   47   48 1
  99   47  110 1
 100   47  111 1
 101   48   49 2
 102   48   50 am
 103   50  112 1
 104   50  113 1
 105   51   52 1
 106   51   53 2
 107   51   54 1
 108   52  114 1
 109   52  115 1
 110   54  116 1
 111   55   56 1
 112   55   57 2
 113   55   58 1
 114   56  117 1
 115   56  118 1
 116   58  119 1
 117   59   60 1
 118   59   61 2
 119   59   62 1
 120   60  120 1
 121   60  121 1
 122   62  122 1

#	End of record

