#	Name: ASD01910345
#	Creating user name:	WinNT
#	Creation time:	15. 06. 2019 19:55

#	Modifying user name:	WinNT
#	Modification time:	15. 06. 2019 19:55

#	Program:	/corina/corina34_cracker 3.40 0067  02.08.2006

@<TRIPOS>MOLECULE
ASD01910345
  39   41    0    0    0
SMALL
NO_CHARGES


@<TRIPOS>ATOM
   1 C1             0.0310     1.4276     0.0784 C.ar    
   2 C2             0.0421    -0.0042     0.0587 C.1     
   3 C3             0.0512    -1.1780     0.0425 C.1     
   4 C4             0.0622    -2.6098     0.0228 C.ar    
   5 C5            -1.1414    -3.3181    -0.0671 C.ar    
   6 C6            -1.1301    -4.6835    -0.0858 C.ar    
   7 C7             0.0836    -5.3739    -0.0147 C.ar    
   8 C8             1.2865    -4.6670     0.0751 C.ar    
   9 C9             1.2771    -3.3015     0.0876 C.ar    
  10 C10            0.0949    -6.8499    -0.0340 C.2     
  11 O11           -0.7606    -7.4723     0.5650 O.2     
  12 N12            1.0537    -7.5075    -0.7158 N.am    
  13 C13            1.1600    -8.9737    -0.6494 C.3     
  14 C14            1.2324    -9.5185    -2.0805 C.3     
  15 O15            2.2698    -8.8382    -2.7911 O.3     
  16 C16            2.0551    -7.4323    -2.9361 C.3     
  17 C17            2.0213    -6.7811    -1.5533 C.3     
  18 C18            1.2317     2.1373     0.1681 C.ar    
  19 C19            1.2157     3.5161     0.1863 C.ar    
  20 C20            0.0125     4.1994     0.1163 C.ar    
  21 C21           -1.1845     3.5012     0.0275 C.ar    
  22 C22           -1.1805     2.1211     0.0022 C.ar    
  23 F23            0.0037     5.5502     0.1350 F       
  24 F24           -2.3543     4.1737    -0.0395 F       
  25 H25           -2.0791    -2.7849    -0.1213 H       
  26 H26           -2.0590    -5.2302    -0.1552 H       
  27 H27            2.2237    -5.2010     0.1303 H       
  28 H28            2.2064    -2.7556     0.1570 H       
  29 H29            2.0620    -9.2521    -0.1045 H       
  30 H30            0.2847    -9.3828    -0.1447 H       
  31 H31            1.4497   -10.5863    -2.0530 H       
  32 H32            0.2788    -9.3530    -2.5817 H       
  33 H33            2.8642    -6.9992    -3.5241 H       
  34 H34            1.1044    -7.2592    -3.4404 H       
  35 H35            1.7186    -5.7381    -1.6460 H       
  36 H36            3.0093    -6.8380    -1.0965 H       
  37 H37            2.1707     1.6066     0.2235 H       
  38 H38            2.1434     4.0647     0.2556 H       
  39 H39           -2.1116     1.5783    -0.0672 H       
@<TRIPOS>BOND
   1    1    2 1
   2    1   18 ar
   3    1   22 ar
   4    2    3 3
   5    3    4 1
   6    4    5 ar
   7    4    9 ar
   8    5    6 ar
   9    5   25 1
  10    6    7 ar
  11    6   26 1
  12    7    8 ar
  13    7   10 1
  14    8    9 ar
  15    8   27 1
  16    9   28 1
  17   10   11 2
  18   10   12 am
  19   12   13 1
  20   12   17 1
  21   13   14 1
  22   13   29 1
  23   13   30 1
  24   14   15 1
  25   14   31 1
  26   14   32 1
  27   15   16 1
  28   16   17 1
  29   16   33 1
  30   16   34 1
  31   17   35 1
  32   17   36 1
  33   18   19 ar
  34   18   37 1
  35   19   20 ar
  36   19   38 1
  37   20   21 ar
  38   20   23 1
  39   21   22 ar
  40   21   24 1
  41   22   39 1

#	End of record

