#	Name: ASD01948091
#	Creating user name:	WinNT
#	Creation time:	15. 06. 2019 20:13

#	Modifying user name:	WinNT
#	Modification time:	15. 06. 2019 20:13

#	Program:	/corina/corina34_cracker 3.40 0067  02.08.2006

@<TRIPOS>MOLECULE
ASD01948091
  42   43    0    0    0
SMALL
NO_CHARGES


@<TRIPOS>ATOM
   1 C1            -0.0188     1.5336     0.0105 C.3     
   2 C2             0.0021    -0.0041     0.0020 C.3     
   3 C3             1.3941     0.0896     0.6488 C.3     
   4 C4             1.5179     1.4762    -0.0045 C.3     
   5 S5            -0.7335     2.2589    -1.4908 S.o2    
   6 O6             0.0533     1.9291    -2.6272 O.2     
   7 O7            -2.1445     2.0907    -1.5028 O.2     
   8 O8            -0.5357     3.7582    -1.3195 O.3     
   9 O9             1.3602     0.1306     2.0768 O.3     
  10 C10            2.5098    -0.4433     2.7022 C.3     
  11 C11            2.3681    -0.3464     4.1994 C.ar    
  12 C12            1.7608    -1.3690     4.9039 C.ar    
  13 C13            1.6308    -1.2800     6.2772 C.ar    
  14 C14            2.1085    -0.1687     6.9462 C.ar    
  15 C15            2.7167     0.8535     6.2418 C.ar    
  16 C16            2.8505     0.7626     4.8690 C.ar    
  17 C17            0.8089     4.1947    -1.5286 C.3     
  18 C18            0.8897     5.7098    -1.3316 C.3     
  19 C19            2.3293     6.1771    -1.5555 C.3     
  20 C20            2.4102     7.6922    -1.3585 C.3     
  21 H21           -0.4309     1.9596     0.9252 H       
  22 H22           -0.7506    -0.4545     0.6490 H       
  23 H23            0.0139    -0.4351    -0.9991 H       
  24 H24            2.1053    -0.6404     0.2621 H       
  25 H25            1.9441     1.4499    -1.0074 H       
  26 H26            1.9889     2.2208     0.6373 H       
  27 H27            2.5963    -1.4905     2.4125 H       
  28 H28            3.4027     0.0961     2.3861 H       
  29 H29            1.3875    -2.2373     4.3812 H       
  30 H30            1.1556    -2.0787     6.8275 H       
  31 H31            2.0063    -0.0989     8.0190 H       
  32 H32            3.0896     1.7220     6.7644 H       
  33 H33            3.3290     1.5596     4.3191 H       
  34 H34            1.4668     3.6998    -0.8143 H       
  35 H35            1.1189     3.9431    -2.5429 H       
  36 H36            0.2318     6.2047    -2.0459 H       
  37 H37            0.5797     5.9613    -0.3174 H       
  38 H38            2.9873     5.6822    -0.8412 H       
  39 H39            2.6394     5.9255    -2.5698 H       
  40 H40            1.7522     8.1871    -2.0728 H       
  41 H41            2.1001     7.9437    -0.3443 H       
  42 H42            3.4357     8.0251    -1.5180 H       
@<TRIPOS>BOND
   1    1    2 1
   2    1    4 1
   3    1    5 1
   4    1   21 1
   5    2    3 1
   6    2   22 1
   7    2   23 1
   8    3    4 1
   9    3    9 1
  10    3   24 1
  11    4   25 1
  12    4   26 1
  13    5    6 2
  14    5    7 2
  15    5    8 1
  16    8   17 1
  17    9   10 1
  18   10   11 1
  19   10   27 1
  20   10   28 1
  21   11   12 ar
  22   11   16 ar
  23   12   13 ar
  24   12   29 1
  25   13   14 ar
  26   13   30 1
  27   14   15 ar
  28   14   31 1
  29   15   16 ar
  30   15   32 1
  31   16   33 1
  32   17   18 1
  33   17   34 1
  34   17   35 1
  35   18   19 1
  36   18   36 1
  37   18   37 1
  38   19   20 1
  39   19   38 1
  40   19   39 1
  41   20   40 1
  42   20   41 1
  43   20   42 1

#	End of record

