#	Name: ASD03430895
#	Creating user name:	WinNT
#	Creation time:	15. 06. 2019 20:41

#	Modifying user name:	WinNT
#	Modification time:	15. 06. 2019 20:41

#	Program:	/corina/corina34_cracker 3.40 0067  02.08.2006

@<TRIPOS>MOLECULE
ASD03430895
  38   42    0    0    0
SMALL
NO_CHARGES


@<TRIPOS>ATOM
   1 O1            -0.0175     1.4361     0.0099 O.3     
   2 C2             0.0021    -0.0041     0.0020 C.3     
   3 C3             1.3453    -0.3162    -0.6708 C.3     
   4 C4             2.1583     0.9236    -0.4089 C.ar    
   5 C5             1.2625     1.9067     0.0002 C.ar    
   6 C6             1.7494     3.1688     0.3261 C.ar    
   7 C7             3.1032     3.4450     0.2332 C.ar    
   8 C8             3.9871     2.4567    -0.1837 C.ar    
   9 C9             3.5064     1.1965    -0.5041 C.ar    
  10 N10            2.1649    -2.4013    -1.1244 N.am    
  11 C11            1.9859    -1.5473    -0.0970 C.2     
  12 C12            1.1900    -0.5950    -2.1363 C.ar    
  13 C13            0.6771     0.1240    -3.1922 C.ar    
  14 C14            0.6770    -0.4185    -4.4654 C.ar    
  15 C15            1.1927    -1.6842    -4.6740 C.ar    
  16 C16            1.7063    -2.4097    -3.6187 C.ar    
  17 C17            1.7093    -1.8723    -2.3343 C.ar    
  18 O18            2.2844    -1.7358     1.0634 O.2     
  19 O19            3.5540     4.6904     0.5492 O.3     
  20 O20            5.3221     2.7070    -0.2790 O.3     
  21 C21            5.7177     4.0828    -0.3069 C.3     
  22 C22            4.9570     4.8226     0.8019 C.3     
  23 C23            0.1156     0.3683    -5.6216 C.3     
  24 H24           -0.0220    -0.3969     1.0185 H       
  25 H25           -0.8262    -0.3990    -0.5862 H       
  26 H26            1.0665     3.9387     0.6536 H       
  27 H27            4.1899     0.4261    -0.8292 H       
  28 H28            2.5633    -3.2811    -1.0340 H       
  29 H29            0.2740     1.1123    -3.0269 H       
  30 H30            1.1933    -2.1072    -5.6677 H       
  31 H31            2.1069    -3.3980    -3.7895 H       
  32 H32            6.7907     4.1607    -0.1317 H       
  33 H33            5.4701     4.5171    -1.2756 H       
  34 H34            5.2335     5.8770     0.7967 H       
  35 H35            5.1991     4.3834     1.7696 H       
  36 H36            0.9078     0.9650    -6.0738 H       
  37 H37           -0.2916    -0.3177    -6.3643 H       
  38 H38           -0.6755     1.0268    -5.2630 H       
@<TRIPOS>BOND
   1    1    2 1
   2    1    5 1
   3    2    3 1
   4    2   24 1
   5    2   25 1
   6    3    4 1
   7    3   11 1
   8    3   12 1
   9    4    5 ar
  10    4    9 ar
  11    5    6 ar
  12    6    7 ar
  13    6   26 1
  14    7    8 ar
  15    7   19 1
  16    8    9 ar
  17    8   20 1
  18    9   27 1
  19   10   11 am
  20   10   17 1
  21   10   28 1
  22   11   18 2
  23   12   13 ar
  24   12   17 ar
  25   13   14 ar
  26   13   29 1
  27   14   15 ar
  28   14   23 1
  29   15   16 ar
  30   15   30 1
  31   16   17 ar
  32   16   31 1
  33   19   22 1
  34   20   21 1
  35   21   22 1
  36   21   32 1
  37   21   33 1
  38   22   34 1
  39   22   35 1
  40   23   36 1
  41   23   37 1
  42   23   38 1

#	End of record

