#	Name: ASD02588011
#	Creating user name:	WinNT
#	Creation time:	15. 06. 2019 20:25

#	Modifying user name:	WinNT
#	Modification time:	15. 06. 2019 20:25

#	Program:	/corina/corina34_cracker 3.40 0067  02.08.2006

@<TRIPOS>MOLECULE
ASD02588011
  50   55    0    0    0
SMALL
NO_CHARGES


@<TRIPOS>ATOM
   1 C1            -0.0905     1.3749     0.0738 C.2     
   2 N2            -0.0757     0.0071     0.1425 N.pl3   
   3 N3            -1.1896    -0.6999    -0.3355 N.2     
   4 C4            -2.2183    -0.0472    -0.8360 C.2     
   5 N5            -2.2393     1.2889    -0.9066 N.2     
   6 C6            -1.2281     2.0169    -0.4707 C.2     
   7 C7             1.1130     1.8586     0.6034 C.2     
   8 C8             1.8694     0.7342     1.0009 C.2     
   9 C9             1.1041    -0.4010     0.7016 C.2     
  10 N10           -1.2756     3.3949    -0.5550 N.pl3   
  11 C11            1.5131     3.2701     0.7224 C.2     
  12 C12            3.2091     0.7513     1.6145 C.2     
  13 C13           -3.3814    -0.8117    -1.3340 C.2     
  14 O14            3.9162    -0.3303     1.9875 O.3     
  15 C15            5.0836     0.1019     2.5034 C.2     
  16 C16            5.0758     1.4472     2.4392 C.2     
  17 N17            3.9161     1.8256     1.8841 N.2     
  18 O18            0.7819     4.2498     1.2837 O.3     
  19 C19            1.4931     5.3928     1.1973 C.2     
  20 C20            2.6526     5.0975     0.5832 C.2     
  21 N21            2.6481     3.7850     0.3031 N.2     
  22 N22           -4.4700    -0.2971    -1.8556 N.2     
  23 C23           -5.2987    -1.2955    -2.1898 C.2     
  24 C24           -4.6990    -2.4565    -1.8628 C.2     
  25 O25           -3.4989    -2.1511    -1.3336 O.3     
  26 C26            1.4874    -1.7440     0.9384 C.2     
  27 O27            2.5667    -1.9885     1.4446 O.2     
  28 O28            0.6553    -2.7525     0.6027 O.3     
  29 C29            1.1063    -4.0818     0.8700 C.3     
  30 C30            0.0535    -5.0671     0.4320 C.ar    
  31 C31            0.0692    -5.5684    -0.8561 C.ar    
  32 C32           -0.8966    -6.4721    -1.2580 C.ar    
  33 C33           -1.8778    -6.8748    -0.3715 C.ar    
  34 C34           -1.8930    -6.3742     0.9169 C.ar    
  35 C35           -0.9247    -5.4738     1.3201 C.ar    
  36 H36           -2.1015     3.8373    -0.8060 H       
  37 H37           -0.4830     3.9202    -0.3631 H       
  38 H38            5.8779    -0.5157     2.8958 H       
  39 H39            5.8657     2.1042     2.7719 H       
  40 H40            1.1878     6.3651     1.5548 H       
  41 H41            3.4481     5.7927     0.3587 H       
  42 H42           -6.2740    -1.1884    -2.6412 H       
  43 H43           -5.1036    -3.4480    -2.0028 H       
  44 H44            2.0298    -4.2693     0.3221 H       
  45 H45            1.2884    -4.1958     1.9387 H       
  46 H46            0.8358    -5.2538    -1.5487 H       
  47 H47           -0.8847    -6.8632    -2.2646 H       
  48 H48           -2.6328    -7.5803    -0.6856 H       
  49 H49           -2.6599    -6.6886     1.6094 H       
  50 H50           -0.9344    -5.0855     2.3278 H       
@<TRIPOS>BOND
   1    1    2 1
   2    1    7 2
   3    1    6 1
   4    2    3 1
   5    2    9 1
   6    3    4 2
   7    4    5 1
   8    4   13 1
   9    5    6 2
  10    6   10 1
  11    7    8 1
  12    7   11 1
  13    8    9 2
  14    8   12 1
  15    9   26 1
  16   10   36 1
  17   10   37 1
  18   11   18 1
  19   11   21 2
  20   12   14 1
  21   12   17 2
  22   13   22 2
  23   13   25 1
  24   14   15 1
  25   15   16 2
  26   15   38 1
  27   16   17 1
  28   16   39 1
  29   18   19 1
  30   19   20 2
  31   19   40 1
  32   20   21 1
  33   20   41 1
  34   22   23 1
  35   23   24 2
  36   23   42 1
  37   24   25 1
  38   24   43 1
  39   26   27 2
  40   26   28 1
  41   28   29 1
  42   29   30 1
  43   29   44 1
  44   29   45 1
  45   30   31 ar
  46   30   35 ar
  47   31   32 ar
  48   31   46 1
  49   32   33 ar
  50   32   47 1
  51   33   34 ar
  52   33   48 1
  53   34   35 ar
  54   34   49 1
  55   35   50 1

#	End of record

