#	Name: ASD00844842
#	Creating user name:	WinNT
#	Creation time:	15. 06. 2019 18:51

#	Modifying user name:	WinNT
#	Modification time:	15. 06. 2019 18:51

#	Program:	/corina/corina34_cracker 3.40 0067  02.08.2006

@<TRIPOS>MOLECULE
ASD00844842
  92   97    0    0    0
SMALL
NO_CHARGES


@<TRIPOS>ATOM
   1 F1             5.6616    -2.3386    -1.9051 F       
   2 C2             0.8051     1.2052    -0.3137 C.ar    
   3 C3             1.0098    -0.1346    -0.6086 C.ar    
   4 C4             0.8358    -1.0942     0.3784 C.ar    
   5 C5             0.4592    -0.7134     1.6515 C.ar    
   6 C6             0.2553     0.6230     1.9428 C.ar    
   7 C7             0.4285     1.5811     0.9614 C.ar    
   8 C8             1.0568    -2.5508     0.0613 C.3     
   9 C9             0.6811    -3.4143     1.2464 C.2     
  10 C10            0.2515    -2.9571    -1.1744 C.3     
  11 C11           -1.1996    -2.6082    -0.9654 C.2     
  12 N12           -2.1190    -2.9728    -1.8810 N.am    
  13 O13           -1.5401    -1.9994     0.0267 O.2     
  14 C14           -3.5210    -2.5469    -1.7539 C.3     
  15 C15           -3.9611    -1.9187    -3.0805 C.3     
  16 N16           -3.6948    -2.8599    -4.1765 N.3     
  17 C17           -2.2568    -3.1292    -4.3100 C.3     
  18 C18           -1.7457    -3.8019    -3.0370 C.3     
  19 C19           -4.2579    -2.3683    -5.4411 C.3     
  20 C20           -3.8553    -3.3088    -6.5804 C.3     
  21 C21           -4.4947    -2.8258    -7.8842 C.3     
  22 N22           -5.9555    -2.8047    -7.7359 N.3     
  23 C23           -6.3686    -1.8725    -6.6792 C.3     
  24 C24           -5.7851    -2.3270    -5.3394 C.3     
  25 C25           -6.6094    -2.4790    -9.0104 C.3     
  26 O26           -0.4162    -3.4993     1.7562 O.2     
  27 N27            1.7904    -4.0692     1.6278 N.am    
  28 C28            2.5282    -2.8301    -0.1466 C.ar    
  29 C29            2.8930    -3.7496     0.8316 C.ar    
  30 C30            3.4473    -2.3588    -1.0578 C.ar    
  31 C31            4.7587    -2.7989    -1.0118 C.ar    
  32 C32            5.1436    -3.7232    -0.0353 C.ar    
  33 C33            4.2080    -4.1967     0.8841 C.ar    
  34 C34            1.4755    -6.7312     2.2513 C.ar    
  35 C35            0.2210    -6.9928     1.7203 C.ar    
  36 C36            2.4372    -7.7230     2.2693 C.ar    
  37 C37            2.1503    -8.9751     1.7584 C.ar    
  38 C38            0.9004    -9.2385     1.2286 C.ar    
  39 C39           -0.0647    -8.2505     1.2086 C.ar    
  40 H40            0.6786   -10.2174     0.8300 H       
  41 O41           -0.7268    -6.0191     1.7018 O.3     
  42 C42           -1.9959    -6.3596     1.1399 C.3     
  43 C43           -2.9252    -5.1460     1.2063 C.3     
  44 C44            6.4983    -4.1841     0.0200 C.1     
  45 N45            7.5730    -4.5498     0.0638 N.1     
  46 S46            1.8445    -5.1333     2.8955 S.o2    
  47 O47            3.1982    -5.1768     3.3254 O.2     
  48 O48            0.7668    -4.7884     3.7550 O.2     
  49 O49            1.3798    -0.5069    -1.8622 O.3     
  50 C50            1.4542     0.5235    -2.8495 C.3     
  51 C51            1.9737    -0.0651    -4.1627 C.3     
  52 F52            3.2056    -0.6893    -3.9389 F       
  53 F53            1.0567    -1.0035    -4.6482 F       
  54 H54            0.9443     1.9544    -1.0791 H       
  55 H55            0.3236    -1.4599     2.4201 H       
  56 H56           -0.0397     0.9187     2.9388 H       
  57 H57            0.2687     2.6241     1.1914 H       
  58 H58            0.6311    -2.4250    -2.0467 H       
  59 H59            0.3476    -4.0311    -1.3338 H       
  60 H60           -4.1475    -3.4109    -1.5323 H       
  61 H61           -3.6094    -1.8121    -0.9537 H       
  62 H62           -5.0278    -1.6976    -3.0421 H       
  63 H63           -3.4041    -0.9971    -3.2490 H       
  64 H64           -2.0875    -3.7860    -5.1632 H       
  65 H65           -1.7235    -2.1907    -4.4614 H       
  66 H66           -0.6611    -3.8995    -3.0846 H       
  67 H67           -2.2006    -4.7872    -2.9355 H       
  68 H68           -3.8782    -1.3669    -5.6441 H       
  69 H69           -2.7704    -3.3095    -6.6855 H       
  70 H70           -4.2005    -4.3185    -6.3579 H       
  71 H71           -4.1384    -1.8215    -8.1132 H       
  72 H72           -4.2217    -3.5015    -8.6947 H       
  73 H73           -6.0035    -0.8726    -6.9138 H       
  74 H74           -7.4566    -1.8558    -6.6145 H       
  75 H75           -6.1607    -3.3212    -5.0974 H       
  76 H76           -6.0790    -1.6262    -4.5580 H       
  77 H77           -6.3446    -3.2282    -9.7565 H       
  78 H78           -7.6905    -2.4701    -8.8723 H       
  79 H79           -6.2781    -1.4970    -9.3481 H       
  80 H80            3.1442    -1.6451    -1.8096 H       
  81 H81            4.5056    -4.9104     1.6380 H       
  82 H82            3.4141    -7.5198     2.6826 H       
  83 H83            2.9036    -9.7488     1.7728 H       
  84 H84           -1.0409    -8.4569     0.7953 H       
  85 H85           -1.8642    -6.6599     0.1004 H       
  86 H86           -2.4335    -7.1836     1.7035 H       
  87 H87           -3.8932    -5.4057     0.7777 H       
  88 H88           -3.0569    -4.8457     2.2458 H       
  89 H89           -2.4876    -4.3220     0.6427 H       
  90 H90            0.4624     0.9469    -3.0083 H       
  91 H91            2.1327     1.3054    -2.5082 H       
  92 H92            2.0985     0.7332    -4.8944 H       
@<TRIPOS>BOND
   1    1   31 1
   2    2    3 ar
   3    2    7 ar
   4    2   54 1
   5    3    4 ar
   6    3   49 1
   7    4    5 ar
   8    4    8 1
   9    5    6 ar
  10    5   55 1
  11    6    7 ar
  12    6   56 1
  13    7   57 1
  14    8    9 1
  15    8   10 1
  16    8   28 1
  17    9   26 2
  18    9   27 am
  19   10   11 1
  20   10   58 1
  21   10   59 1
  22   11   12 am
  23   11   13 2
  24   12   14 1
  25   12   18 1
  26   14   15 1
  27   14   60 1
  28   14   61 1
  29   15   16 1
  30   15   62 1
  31   15   63 1
  32   16   17 1
  33   16   19 1
  34   17   18 1
  35   17   64 1
  36   17   65 1
  37   18   66 1
  38   18   67 1
  39   19   20 1
  40   19   24 1
  41   19   68 1
  42   20   21 1
  43   20   69 1
  44   20   70 1
  45   21   22 1
  46   21   71 1
  47   21   72 1
  48   22   23 1
  49   22   25 1
  50   23   24 1
  51   23   73 1
  52   23   74 1
  53   24   75 1
  54   24   76 1
  55   25   77 1
  56   25   78 1
  57   25   79 1
  58   27   46 am
  59   27   29 1
  60   28   29 ar
  61   28   30 ar
  62   29   33 ar
  63   30   31 ar
  64   30   80 1
  65   31   32 ar
  66   32   33 ar
  67   32   44 1
  68   33   81 1
  69   34   35 ar
  70   34   36 ar
  71   34   46 1
  72   35   41 1
  73   35   39 ar
  74   36   37 ar
  75   36   82 1
  76   37   38 ar
  77   37   83 1
  78   38   39 ar
  79   38   40 1
  80   39   84 1
  81   41   42 1
  82   42   43 1
  83   42   85 1
  84   42   86 1
  85   43   87 1
  86   43   88 1
  87   43   89 1
  88   44   45 3
  89   46   47 2
  90   46   48 2
  91   49   50 1
  92   50   51 1
  93   50   90 1
  94   50   91 1
  95   51   52 1
  96   51   53 1
  97   51   92 1

#	End of record

