#	Name: ASD01883045
#	Creating user name:	WinNT
#	Creation time:	15. 06. 2019 19:45

#	Modifying user name:	WinNT
#	Modification time:	15. 06. 2019 19:45

#	Program:	/corina/corina34_cracker 3.40 0067  02.08.2006

@<TRIPOS>MOLECULE
ASD01883045
  43   46    0    0    0
SMALL
NO_CHARGES


@<TRIPOS>ATOM
   1 N1            -0.0674     1.2326     1.3321 N.am    
   2 C2            -0.0479     0.0625     0.6673 C.2     
   3 C3            -1.2574    -0.6363     0.4310 C.2     
   4 C4            -2.4604    -0.0819     0.9032 C.2     
   5 C5            -2.4146     1.1461     1.5922 C.2     
   6 C6            -1.2289     1.7647     1.7922 C.2     
   7 O7             1.0094    -0.3954     0.2685 O.2     
   8 C8            -1.2551    -1.8822    -0.2749 C.1     
   9 N9            -1.2533    -2.8705    -0.8350 N.1     
  10 C10            1.1912     1.9438     1.5695 C.3     
  11 C11            1.4657     2.8973     0.4049 C.3     
  12 C12           -5.4369    -1.5856    -0.8203 C.ar    
  13 C13           -3.7471    -0.7734     0.6806 C.ar    
  14 C14           -4.4768    -1.2617     1.7673 C.ar    
  15 C15           -6.1597    -2.0705     0.2633 C.ar    
  16 O16           -7.3419    -2.7058     0.0588 O.3     
  17 C17           -8.4766    -1.9611     0.0746 C.ar    
  18 C18           -8.4189    -0.5748     0.1865 C.ar    
  19 C19           -9.5966     0.1474     0.1989 C.ar    
  20 N20          -10.7643    -0.4620     0.1062 N.ar    
  21 C21          -10.8585    -1.7742    -0.0012 C.ar    
  22 C22           -9.7285    -2.5646    -0.0267 C.ar    
  23 C23           -4.2371    -0.9405    -0.6169 C.ar    
  24 C24           -5.6758    -1.9058     1.5557 C.ar    
  25 Cl25          -9.5406     1.8769     0.3385 Cl      
  26 C26            2.6796     3.8216     0.5197 C.3     
  27 C27            2.7104     2.6345    -0.4450 C.3     
  28 H28           -3.3256     1.5912     1.9640 H       
  29 H29           -1.2061     2.7057     2.3217 H       
  30 H30            1.1174     2.5135     2.4959 H       
  31 H31            2.0058     1.2240     1.6495 H       
  32 H32            0.5828     3.2867    -0.1020 H       
  33 H33           -5.8142    -1.7192    -1.8234 H       
  34 H34           -4.1011    -1.1347     2.7718 H       
  35 H35           -7.4667    -0.0709     0.2630 H       
  36 H36          -11.8328    -2.2346    -0.0744 H       
  37 H37           -9.8132    -3.6376    -0.1152 H       
  38 H38           -3.6756    -0.5647    -1.4595 H       
  39 H39           -6.2405    -2.2836     2.3953 H       
  40 H40            2.5954     4.8189     0.0879 H       
  41 H41            3.2826     3.7503     1.4249 H       
  42 H42            3.3338     1.7822    -0.1745 H       
  43 H43            2.6466     2.8508    -1.5114 H       
@<TRIPOS>BOND
   1    1    2 am
   2    1   10 1
   3    1    6 1
   4    2    3 1
   5    2    7 2
   6    3    4 2
   7    3    8 1
   8    4    5 1
   9    4   13 1
  10    5    6 2
  11    5   28 1
  12    6   29 1
  13    8    9 3
  14   10   11 1
  15   10   30 1
  16   10   31 1
  17   11   26 1
  18   11   27 1
  19   11   32 1
  20   12   23 ar
  21   12   15 ar
  22   12   33 1
  23   13   14 ar
  24   13   23 ar
  25   14   24 ar
  26   14   34 1
  27   15   16 1
  28   15   24 ar
  29   16   17 1
  30   17   18 ar
  31   17   22 ar
  32   18   19 ar
  33   18   35 1
  34   19   20 ar
  35   19   25 1
  36   20   21 ar
  37   21   22 ar
  38   21   36 1
  39   22   37 1
  40   23   38 1
  41   24   39 1
  42   26   27 1
  43   26   40 1
  44   26   41 1
  45   27   42 1
  46   27   43 1

#	End of record

