#	Name: ASD01911830
#	Creating user name:	WinNT
#	Creation time:	15. 06. 2019 19:58

#	Modifying user name:	WinNT
#	Modification time:	15. 06. 2019 19:58

#	Program:	/corina/corina34_cracker 3.40 0067  02.08.2006

@<TRIPOS>MOLECULE
ASD01911830
  36   38    0    0    0
SMALL
NO_CHARGES


@<TRIPOS>ATOM
   1 C1            -1.0602    -0.5025    -2.0833 C.ar    
   2 C2            -1.0560     0.0558    -0.8085 C.ar    
   3 C3            -1.0048     1.4360    -0.6779 C.ar    
   4 N4            -0.9606     2.2114    -1.7432 N.ar    
   5 C5            -0.9632     1.7145    -2.9644 C.ar    
   6 C6            -1.0128     0.3489    -3.1750 C.ar    
   7 O7            -1.1018    -0.7395     0.2924 O.3     
   8 C8            -1.1523    -2.0845     0.1061 C.ar    
   9 C9            -0.0018    -2.7819    -0.2363 C.ar    
  10 C10           -0.0517    -4.1501    -0.4262 C.ar    
  11 C11           -1.2468    -4.8281    -0.2758 C.ar    
  12 C12           -2.4009    -4.1351     0.0667 C.ar    
  13 C13           -2.3514    -2.7619     0.2633 C.ar    
  14 N14           -3.6101    -4.8210     0.2188 N.am    
  15 C15           -4.7722    -4.2162    -0.0977 C.2     
  16 C16           -6.0563    -4.9015     0.1604 C.ar    
  17 C17           -7.2615    -4.2779    -0.1662 C.ar    
  18 C18           -8.4569    -4.9225     0.0772 C.ar    
  19 C19           -8.4633    -6.1844     0.6437 C.ar    
  20 C20           -7.2714    -6.8091     0.9708 C.ar    
  21 C21           -6.0684    -6.1774     0.7266 C.ar    
  22 O22           -4.7645    -3.1072    -0.5955 O.2     
  23 Cl23          -7.2898    -8.3924     1.6825 Cl      
  24 I24            1.6871    -5.1981    -0.9434 I       
  25 H25           -1.0951    -1.5735    -2.2180 H       
  26 H26           -1.0014     1.8799     0.3067 H       
  27 H27           -0.9261     2.3831    -3.8117 H       
  28 H28           -1.0142    -0.0494    -4.1789 H       
  29 H29            0.9333    -2.2546    -0.3547 H       
  30 H30           -1.2834    -5.8971    -0.4250 H       
  31 H31           -3.2473    -2.2209     0.5296 H       
  32 H32           -3.6124    -5.7319     0.5520 H       
  33 H33           -7.2584    -3.2926    -0.6082 H       
  34 H34           -9.3899    -4.4405    -0.1749 H       
  35 H35           -9.4019    -6.6844     0.8320 H       
  36 H36           -5.1392    -6.6653     0.9816 H       
@<TRIPOS>BOND
   1    1    2 ar
   2    1    6 ar
   3    1   25 1
   4    2    3 ar
   5    2    7 1
   6    3    4 ar
   7    3   26 1
   8    4    5 ar
   9    5    6 ar
  10    5   27 1
  11    6   28 1
  12    7    8 1
  13    8    9 ar
  14    8   13 ar
  15    9   10 ar
  16    9   29 1
  17   10   11 ar
  18   10   24 1
  19   11   12 ar
  20   11   30 1
  21   12   13 ar
  22   12   14 1
  23   13   31 1
  24   14   15 am
  25   14   32 1
  26   15   16 1
  27   15   22 2
  28   16   17 ar
  29   16   21 ar
  30   17   18 ar
  31   17   33 1
  32   18   19 ar
  33   18   34 1
  34   19   20 ar
  35   19   35 1
  36   20   21 ar
  37   20   23 1
  38   21   36 1

#	End of record

