#	Name: ASD04590939
#	Creating user name:	WinNT
#	Creation time:	15. 06. 2019 20:51

#	Modifying user name:	WinNT
#	Modification time:	15. 06. 2019 20:51

#	Program:	/corina/corina34_cracker 3.40 0067  02.08.2006

@<TRIPOS>MOLECULE
ASD04590939
  58   63    0    0    0
SMALL
NO_CHARGES


@<TRIPOS>ATOM
   1 N1            -0.0171     1.3235    -0.0119 N.ar    
   2 C2             0.0017    -0.0035    -0.0051 C.ar    
   3 N3             1.1296    -0.6948    -0.0122 N.ar    
   4 C4             2.3050    -0.0726    -0.0266 C.ar    
   5 C5             2.3190     1.3364    -0.0341 C.ar    
   6 C6             1.1069     2.0203    -0.0262 C.ar    
   7 N7             3.6031    -0.5195    -0.0374 N.pl3   
   8 C8             4.4824     0.5494    -0.0518 C.ar    
   9 C9             3.7312     1.7384    -0.0504 C.ar    
  10 C10            5.8681     0.6417    -0.0666 C.ar    
  11 N11            6.4613     1.8180    -0.0786 N.ar    
  12 C12            5.7850     2.9532    -0.0777 C.ar    
  13 C13            4.4064     2.9584    -0.0635 C.ar    
  14 N14           -1.2019    -0.6887     0.0103 N.pl3   
  15 C15           -2.4019     0.0120     0.1313 C.ar    
  16 N16           -2.3782     1.3200     0.3318 N.ar    
  17 C17           -3.4880     2.0232     0.4517 C.ar    
  18 C18           -4.7291     1.4088     0.3708 C.ar    
  19 C19           -4.7935     0.0326     0.1602 C.ar    
  20 C20           -3.6090    -0.6707     0.0341 C.ar    
  21 N21           -5.9023     2.1617     0.4995 N.3     
  22 C22            4.0016    -1.9292    -0.0333 C.3     
  23 C23           -6.7477     1.6387     1.5818 C.3     
  24 C24            3.4408    -2.6524    -1.2752 C.3     
  25 O25            2.3016    -1.9509    -1.7774 O.3     
  26 C26            3.0310    -4.0624    -0.8152 C.3     
  27 C27            3.3569    -4.1469     0.6903 C.3     
  28 C28            3.3554    -2.6717     1.1626 C.3     
  29 C29           -5.5952     3.5827     0.7148 C.3     
  30 C30           -6.8998     4.3810     0.7706 C.3     
  31 N31           -7.7452     3.8580     1.8530 N.3     
  32 C32           -8.0523     2.4371     1.6377 C.3     
  33 H33            1.0847     3.1001    -0.0319 H       
  34 H34            6.4645    -0.2586    -0.0679 H       
  35 H35            6.3203     3.8911    -0.0879 H       
  36 H36            3.8597     3.8898    -0.0634 H       
  37 H37           -1.2103    -1.6559    -0.0630 H       
  38 H38           -3.4296     3.0891     0.6151 H       
  39 H39           -5.7459    -0.4722     0.0929 H       
  40 H40           -3.6218    -1.7380    -0.1302 H       
  41 H41            5.0874    -2.0177     0.0018 H       
  42 H42           -6.9716     0.5888     1.3933 H       
  43 H43           -6.2221     1.7339     2.5320 H       
  44 H44            4.2080    -2.7188    -2.0467 H       
  45 H45            1.9031    -2.3567    -2.5594 H       
  46 H46            1.9631    -4.2116    -0.9749 H       
  47 H47            3.5995    -4.8139    -1.3630 H       
  48 H48            2.5900    -4.7163     1.2153 H       
  49 H49            4.3385    -4.5954     0.8435 H       
  50 H50            3.9591    -2.5536     2.0625 H       
  51 H51            2.3371    -2.3210     1.3305 H       
  52 H52           -5.0566     3.6999     1.6551 H       
  53 H53           -4.9790     3.9499    -0.1059 H       
  54 H54           -6.6759     5.4309     0.9592 H       
  55 H55           -7.4253     4.2859    -0.1796 H       
  56 H56           -7.3112     4.0019     2.7524 H       
  57 H57           -8.5909     2.3198     0.6973 H       
  58 H58           -8.6685     2.0698     2.4583 H       
@<TRIPOS>BOND
   1    1    2 ar
   2    1    6 ar
   3    2    3 ar
   4    2   14 1
   5    3    4 ar
   6    4    5 ar
   7    4    7 1
   8    5    6 ar
   9    5    9 1
  10    6   33 1
  11    7    8 1
  12    7   22 1
  13    8    9 ar
  14    8   10 ar
  15    9   13 ar
  16   10   11 ar
  17   10   34 1
  18   11   12 ar
  19   12   13 ar
  20   12   35 1
  21   13   36 1
  22   14   15 1
  23   14   37 1
  24   15   16 ar
  25   15   20 ar
  26   16   17 ar
  27   17   18 ar
  28   17   38 1
  29   18   19 ar
  30   18   21 1
  31   19   20 ar
  32   19   39 1
  33   20   40 1
  34   21   29 1
  35   21   23 1
  36   22   24 1
  37   22   28 1
  38   22   41 1
  39   23   32 1
  40   23   42 1
  41   23   43 1
  42   24   25 1
  43   24   26 1
  44   24   44 1
  45   25   45 1
  46   26   27 1
  47   26   46 1
  48   26   47 1
  49   27   28 1
  50   27   48 1
  51   27   49 1
  52   28   50 1
  53   28   51 1
  54   29   30 1
  55   29   52 1
  56   29   53 1
  57   30   31 1
  58   30   54 1
  59   30   55 1
  60   31   32 1
  61   31   56 1
  62   32   57 1
  63   32   58 1

#	End of record

