#	Name: ASD01000139
#	Creating user name:	WinNT
#	Creation time:	15. 06. 2019 18:54

#	Modifying user name:	WinNT
#	Modification time:	15. 06. 2019 18:54

#	Program:	/corina/corina34_cracker 3.40 0067  02.08.2006

@<TRIPOS>MOLECULE
ASD01000139
  48   51    0    0    0
SMALL
NO_CHARGES


@<TRIPOS>ATOM
   1 C1            -0.0167     1.3801     0.0096 C.ar    
   2 N2             0.0826    -6.2717     3.7641 N.3     
   3 C3             0.0021    -0.0041     0.0020 C.ar    
   4 O4            -0.5631    -6.1999     1.1871 O.2     
   5 C5             1.2082    -0.6787    -0.0132 C.ar    
   6 C6             2.3975     0.0297    -0.0208 C.ar    
   7 C7             2.3787     1.4142    -0.0132 C.ar    
   8 C8             1.1729     2.0887     0.0021 C.ar    
   9 C9            -0.0531    -4.9554     3.1263 C.3     
  10 C10           -0.2061    -5.1320     1.6375 C.2     
  11 C11            1.2286    -2.1856    -0.0210 C.3     
  12 C12            0.4937    -2.7573     1.2171 C.3     
  13 C13           -1.3228    -3.9685     5.1896 C.3     
  14 N14            0.0537    -4.1031     0.8066 N.am    
  15 C15           -0.0539    -4.1373    -0.6592 C.3     
  16 C16            0.3664    -2.7475    -1.1820 C.3     
  17 C17           -1.1021    -2.8165     4.2072 C.3     
  18 C18            0.8653    -5.1938    -1.2161 C.ar    
  19 C19            0.4598    -5.9680    -2.2871 C.ar    
  20 C20            1.3029    -6.9371    -2.7979 C.ar    
  21 C21            2.5517    -7.1317    -2.2379 C.ar    
  22 C22            2.9575    -6.3569    -1.1674 C.ar    
  23 C23            2.1161    -5.3848    -0.6594 C.ar    
  24 C24           -1.2864    -4.2427     3.6848 C.3     
  25 F25            3.5765    -0.6298    -0.0352 F       
  26 F26           -1.1957     2.0396     0.0188 F       
  27 H27           -0.7293    -6.8443     3.5881 H       
  28 H28            0.9253    -6.7358     3.4598 H       
  29 H29           -0.9258    -0.5567     0.0083 H       
  30 H30            3.3065     1.9669    -0.0187 H       
  31 H31            1.1583     3.1686     0.0081 H       
  32 H32            0.8356    -4.3587     3.3319 H       
  33 H33            2.2508    -2.5601    -0.0760 H       
  34 H34            1.1747    -2.8231     2.0656 H       
  35 H35           -0.3668    -2.1368     1.4675 H       
  36 H36           -0.4682    -4.2958     5.7817 H       
  37 H37           -2.2903    -4.0262     5.6884 H       
  38 H38           -1.0830    -4.3474    -0.9506 H       
  39 H39           -0.5078    -2.1190    -1.3523 H       
  40 H40            0.9588    -2.8408    -2.0922 H       
  41 H41           -1.9243    -2.1163     4.0597 H       
  42 H42           -0.1022    -2.3860     4.1530 H       
  43 H43           -0.5158    -5.8159    -2.7246 H       
  44 H44            0.9859    -7.5424    -3.6342 H       
  45 H45            3.2101    -7.8893    -2.6365 H       
  46 H46            3.9330    -6.5091    -0.7297 H       
  47 H47            2.4346    -4.7770     0.1745 H       
  48 H48           -2.2298    -4.4812     3.1937 H       
@<TRIPOS>BOND
   1    1    3 ar
   2    1    8 ar
   3    1   26 1
   4    2    9 1
   5    2   27 1
   6    2   28 1
   7    3    5 ar
   8    3   29 1
   9    4   10 2
  10    5    6 ar
  11    5   11 1
  12    6    7 ar
  13    6   25 1
  14    7    8 ar
  15    7   30 1
  16    8   31 1
  17    9   10 1
  18    9   24 1
  19    9   32 1
  20   10   14 am
  21   11   12 1
  22   11   16 1
  23   11   33 1
  24   12   14 1
  25   12   34 1
  26   12   35 1
  27   13   17 1
  28   13   24 1
  29   13   36 1
  30   13   37 1
  31   14   15 1
  32   15   16 1
  33   15   18 1
  34   15   38 1
  35   16   39 1
  36   16   40 1
  37   17   24 1
  38   17   41 1
  39   17   42 1
  40   18   19 ar
  41   18   23 ar
  42   19   20 ar
  43   19   43 1
  44   20   21 ar
  45   20   44 1
  46   21   22 ar
  47   21   45 1
  48   22   23 ar
  49   22   46 1
  50   23   47 1
  51   24   48 1

#	End of record

