#	Name: ASD08710005
#	Creating user name:	WinNT
#	Creation time:	15. 06. 2019 21:19

#	Modifying user name:	WinNT
#	Modification time:	15. 06. 2019 21:19

#	Program:	/corina/corina34_cracker 3.40 0067  02.08.2006

@<TRIPOS>MOLECULE
ASD08710005
  23   24    0    0    0
SMALL
NO_CHARGES


@<TRIPOS>ATOM
   1 C1            -0.0167     1.3794     0.0096 C.ar    
   2 C2             0.0021    -0.0041     0.0020 C.ar    
   3 C3             1.1912     2.0757     0.0018 C.ar    
   4 N4             2.3504     1.4271    -0.0127 N.ar    
   5 C5             2.4086     0.1153    -0.0203 C.ar    
   6 C6             1.2402    -0.6515    -0.0133 C.ar    
   7 C7             1.3135    -2.1324    -0.0219 C.ar    
   8 N8             0.1985    -2.8460    -0.1156 N.ar    
   9 C9             2.5528    -2.7634     0.0626 C.ar    
  10 C10            2.6053    -4.1470     0.0533 C.ar    
  11 C11            1.4156    -4.8541    -0.0402 C.ar    
  12 C12            0.2203    -4.1626    -0.1266 C.ar    
  13 C13            1.1818     3.5555     0.0094 C.2     
  14 O14            2.3439     4.2364     0.0019 O.3     
  15 O15            0.1263     4.1559     0.0223 O.2     
  16 H16           -0.9554     1.9134     0.0170 H       
  17 H17           -0.9179    -0.5698     0.0081 H       
  18 H18            3.3700    -0.3765    -0.0321 H       
  19 H19            3.4598    -2.1814     0.1339 H       
  20 H20            3.5514    -4.6640     0.1171 H       
  21 H21            1.4225    -5.9340    -0.0499 H       
  22 H22           -0.7078    -4.7101    -0.1992 H       
  23 H23            2.2872     5.2017     0.0073 H       
@<TRIPOS>BOND
   1    1    2 ar
   2    1    3 ar
   3    1   16 1
   4    2    6 ar
   5    2   17 1
   6    3    4 ar
   7    3   13 1
   8    4    5 ar
   9    5    6 ar
  10    5   18 1
  11    6    7 1
  12    7    8 ar
  13    7    9 ar
  14    8   12 ar
  15    9   10 ar
  16    9   19 1
  17   10   11 ar
  18   10   20 1
  19   11   12 ar
  20   11   21 1
  21   12   22 1
  22   13   14 1
  23   13   15 2
  24   14   23 1

#	End of record

