#	Name: ASD05430091
#	Creating user name:	WinNT
#	Creation time:	15. 06. 2019 20:59

#	Modifying user name:	WinNT
#	Modification time:	15. 06. 2019 20:59

#	Program:	/corina/corina34_cracker 3.40 0067  02.08.2006

@<TRIPOS>MOLECULE
ASD05430091
  67   73    0    0    0
SMALL
NO_CHARGES


@<TRIPOS>ATOM
   1 C1             0.1868     1.1565    -1.0656 C.ar    
   2 C2             0.0193    -0.0159    -0.3186 C.ar    
   3 C3             1.0350    -0.4752     0.5069 C.ar    
   4 C4             2.2233     0.2156     0.6030 C.ar    
   5 C5             2.4025     1.3912    -0.1359 C.ar    
   6 C6             1.3783     1.8525    -0.9614 C.ar    
   7 C7             4.8916    -0.0292    -0.1190 C.3     
   8 C8             4.8375     1.4733     0.0353 C.2     
   9 C9             3.6674     2.1375    -0.0410 C.2     
  10 C10            6.3073    -0.4711    -0.4942 C.3     
  11 C11            7.0864     0.5727    -1.3002 C.3     
  12 N12            7.1990     1.7991    -0.5094 N.pl3   
  13 C13            6.1008     2.1884     0.2718 C.2     
  14 C14            8.1774     3.8063    -1.4568 C.ar    
  15 C15            9.1824     4.7370    -1.6437 C.ar    
  16 C16            8.9814     5.8114    -2.4895 C.ar    
  17 C17            6.7676     5.0219    -2.9628 C.ar    
  18 C18            6.9705     3.9489    -2.1158 C.ar    
  19 N19           -1.1834    -0.7301    -0.4052 N.pl3   
  20 N20           -2.3026    -0.4030    -1.1881 N.2     
  21 C21           -3.1989    -1.3307    -0.9727 C.2     
  22 N22           -2.7083    -2.2147    -0.1049 N.2     
  23 C23           -1.4941    -1.8704     0.2415 C.2     
  24 C24            7.0995    -1.0108     0.7003 C.3     
  25 S25            7.9758    -2.1558    -0.4004 S.o     
  26 C26            6.3441    -1.8618    -1.1361 C.3     
  27 O27            8.9620    -1.4446    -1.1357 O.2     
  28 C28           -4.5663    -1.3897    -1.6034 C.3     
  29 C29            1.2626     3.0731    -1.8535 C.3     
  30 C30           -0.2604     3.1313    -2.1194 C.3     
  31 O31           -0.6654     1.7636    -1.9377 O.3     
  32 C32            8.3998     2.6321    -0.5388 C.3     
  33 C33            8.6875     3.1367     0.8798 C.3     
  34 N34            7.4597     3.6827     1.4629 N.pl3   
  35 N35            6.2153     3.1099     1.1744 N.2     
  36 C36            9.5856     1.8046    -1.0388 C.3     
  37 C37            7.7731     5.9551    -3.1501 C.ar    
  38 F38            7.5756     7.0050    -3.9771 F       
  39 H39            0.8933    -1.3804     1.0785 H       
  40 H40            3.0120    -0.1476     1.2452 H       
  41 H41            4.6038    -0.4994     0.8213 H       
  42 H42            4.1979    -0.3371    -0.9014 H       
  43 H43            3.6579     3.2174    -0.0326 H       
  44 H44            8.0823     0.1910    -1.5250 H       
  45 H45            6.5575     0.7852    -2.2293 H       
  46 H46           10.1248     4.6247    -1.1284 H       
  47 H47            9.7665     6.5387    -2.6348 H       
  48 H48            5.8249     5.1327    -3.4781 H       
  49 H49            6.1863     3.2208    -1.9696 H       
  50 H50           -0.8558    -2.4028     0.9311 H       
  51 H51            7.7541    -0.2655     1.1521 H       
  52 H52            6.4741    -1.5174     1.4353 H       
  53 H53            5.5742    -2.5312    -0.7523 H       
  54 H54            6.3646    -1.8304    -2.2254 H       
  55 H55           -4.5131    -1.9547    -2.5340 H       
  56 H56           -5.2607    -1.8791    -0.9204 H       
  57 H57           -4.9142    -0.3780    -1.8119 H       
  58 H58            1.6018     3.9692    -1.3337 H       
  59 H59            1.8150     2.9306    -2.7822 H       
  60 H60           -0.7545     3.7802    -1.3963 H       
  61 H61           -0.4625     3.4619    -3.1383 H       
  62 H62            9.0449     2.3101     1.4938 H       
  63 H63            9.4488     3.9158     0.8408 H       
  64 H64            7.5094     4.4490     2.0555 H       
  65 H65            9.3746     1.4374    -2.0431 H       
  66 H66           10.4800     2.4273    -1.0600 H       
  67 H67            9.7470     0.9597    -0.3694 H       
@<TRIPOS>BOND
   1    1    2 ar
   2    1    6 ar
   3    1   31 1
   4    2    3 ar
   5    2   19 1
   6    3    4 ar
   7    3   39 1
   8    4    5 ar
   9    4   40 1
  10    5    6 ar
  11    5    9 1
  12    6   29 1
  13    7    8 1
  14    7   10 1
  15    7   41 1
  16    7   42 1
  17    8    9 2
  18    8   13 1
  19    9   43 1
  20   10   11 1
  21   10   24 1
  22   10   26 1
  23   11   12 1
  24   11   44 1
  25   11   45 1
  26   12   13 1
  27   12   32 1
  28   13   35 2
  29   14   15 ar
  30   14   18 ar
  31   14   32 1
  32   15   16 ar
  33   15   46 1
  34   16   37 ar
  35   16   47 1
  36   17   18 ar
  37   17   37 ar
  38   17   48 1
  39   18   49 1
  40   19   20 1
  41   19   23 1
  42   20   21 2
  43   21   22 1
  44   21   28 1
  45   22   23 2
  46   23   50 1
  47   24   25 1
  48   24   51 1
  49   24   52 1
  50   25   26 1
  51   25   27 2
  52   26   53 1
  53   26   54 1
  54   28   55 1
  55   28   56 1
  56   28   57 1
  57   29   30 1
  58   29   58 1
  59   29   59 1
  60   30   31 1
  61   30   60 1
  62   30   61 1
  63   32   33 1
  64   32   36 1
  65   33   34 1
  66   33   62 1
  67   33   63 1
  68   34   35 1
  69   34   64 1
  70   36   65 1
  71   36   66 1
  72   36   67 1
  73   37   38 1

#	End of record

