#	Name: ASD03080063
#	Creating user name:	WinNT
#	Creation time:	15. 06. 2019 20:26

#	Modifying user name:	WinNT
#	Modification time:	15. 06. 2019 20:26

#	Program:	/corina/corina34_cracker 3.40 0067  02.08.2006

@<TRIPOS>MOLECULE
ASD03080063
  46   48    0    0    0
SMALL
NO_CHARGES


@<TRIPOS>ATOM
   1 C1            -0.0162     1.3436     0.0094 C.2     
   2 N2             0.0021    -0.0041     0.0020 N.am    
   3 O3             1.0277     1.9654     0.0028 O.2     
   4 O4            -1.1912     2.0008     0.0186 O.3     
   5 C5             1.2806    -0.7192    -0.0140 C.3     
   6 C6             1.0253    -2.2044    -0.0196 C.ar    
   7 C7             0.8973    -2.8765    -1.2179 C.ar    
   8 C8             0.6614    -4.2519    -1.2212 C.ar    
   9 C9             0.5565    -4.9388    -0.0105 C.ar    
  10 C10            0.6865    -4.2550     1.1804 C.ar    
  11 C11            0.9256    -2.8920     1.1766 C.ar    
  12 O12            0.6001    -4.4501    -3.7326 O.3     
  13 N13            0.4427    -5.3179    -4.5650 N.2     
  14 C14            0.2507    -6.4749    -3.9849 C.2     
  15 N15            0.2999    -6.2702    -2.6520 N.2     
  16 C16            0.5227    -4.9782    -2.5013 C.2     
  17 C17           -0.1716    -8.9374    -3.9268 C.ar    
  18 C18            0.0204    -7.7730    -4.6671 C.ar    
  19 C19           -0.0077    -7.8466    -6.0620 C.ar    
  20 C20           -0.2265    -9.0808    -6.6502 C.ar    
  21 C21           -0.4084   -10.1906    -5.8458 C.ar    
  22 N22           -0.3769   -10.0897    -4.5308 N.ar    
  23 C23           -1.1349     3.4517     0.0262 C.3     
  24 C24           -0.4003     3.9401    -1.2239 C.3     
  25 C25           -2.5565     4.0172     0.0360 C.3     
  26 C26           -0.3885     3.9266     1.2745 C.3     
  27 H27           -0.8313    -0.5005     0.0073 H       
  28 H28            1.8400    -0.4434    -0.9079 H       
  29 H29            1.8570    -0.4529     0.8719 H       
  30 H30            0.9791    -2.3391    -2.1511 H       
  31 H31            0.3737    -6.0032    -0.0063 H       
  32 H32            0.6052    -4.7852     2.1178 H       
  33 H33            1.0306    -2.3620     2.1118 H       
  34 H34           -0.1479    -8.8955    -2.8479 H       
  35 H35            0.1371    -6.9632    -6.6661 H       
  36 H36           -0.2551    -9.1756    -7.7257 H       
  37 H37           -0.5793   -11.1549    -6.3011 H       
  38 H38           -0.9321     3.6018    -2.1132 H       
  39 H39           -0.3581     5.0293    -1.2182 H       
  40 H40            0.6125     3.5373    -1.2309 H       
  41 H41           -3.0798     3.6692     0.9266 H       
  42 H42           -2.5142     5.1064     0.0417 H       
  43 H43           -3.0883     3.6789    -0.8533 H       
  44 H44            0.6243     3.5237     1.2675 H       
  45 H45           -0.3462     5.0157     1.2802 H       
  46 H46           -0.9118     3.5786     2.1651 H       
@<TRIPOS>BOND
   1    1    2 am
   2    1    3 2
   3    1    4 1
   4    2    5 1
   5    2   27 1
   6    4   23 1
   7    5    6 1
   8    5   28 1
   9    5   29 1
  10    6    7 ar
  11    6   11 ar
  12    7    8 ar
  13    7   30 1
  14    8    9 ar
  15    8   16 1
  16    9   10 ar
  17    9   31 1
  18   10   11 ar
  19   10   32 1
  20   11   33 1
  21   12   13 1
  22   12   16 1
  23   13   14 2
  24   14   15 1
  25   14   18 1
  26   15   16 2
  27   17   18 ar
  28   17   22 ar
  29   17   34 1
  30   18   19 ar
  31   19   20 ar
  32   19   35 1
  33   20   21 ar
  34   20   36 1
  35   21   22 ar
  36   21   37 1
  37   23   24 1
  38   23   26 1
  39   23   25 1
  40   24   38 1
  41   24   39 1
  42   24   40 1
  43   25   41 1
  44   25   42 1
  45   25   43 1
  46   26   44 1
  47   26   45 1
  48   26   46 1

#	End of record

