#	Name: ASD01883081
#	Creating user name:	WinNT
#	Creation time:	15. 06. 2019 19:45

#	Modifying user name:	WinNT
#	Modification time:	15. 06. 2019 19:45

#	Program:	/corina/corina34_cracker 3.40 0067  02.08.2006

@<TRIPOS>MOLECULE
ASD01883081
  62   65    0    0    0
SMALL
NO_CHARGES


@<TRIPOS>ATOM
   1 O1            -0.0173     1.4248     0.0099 O.3     
   2 N2             5.4106     4.2700     1.3562 N.am    
   3 C3             6.1576     3.3310     1.9659 C.2     
   4 C4             6.5949     3.5314     3.2990 C.2     
   5 C5             6.2327     4.7192     3.9563 C.2     
   6 C6             5.4497     5.6632     3.2646 C.2     
   7 C7             5.0656     5.4194     1.9905 C.2     
   8 O8             6.4572     2.3091     1.3722 O.2     
   9 C9             7.3899     2.5426     3.9631 C.1     
  10 N10            8.0205     1.7583     4.4899 N.1     
  11 C11            4.9659     4.0499    -0.0222 C.3     
  12 C12            3.6326     3.3475    -0.0137 C.ar    
  13 C13            2.4636     4.0858     0.0010 C.ar    
  14 C14            1.2402     3.4444     0.0087 C.ar    
  15 C15            1.1850     2.0582     0.0018 C.ar    
  16 C16            2.3594     1.3196    -0.0129 C.ar    
  17 C17            3.5802     1.9659    -0.0264 C.ar    
  18 C18            6.6651     4.9729     5.3481 C.ar    
  19 C19            7.5381     6.0249     5.6301 C.ar    
  20 C20            7.9375     6.2560     6.9302 C.ar    
  21 C21            7.4750     5.4475     7.9534 C.ar    
  22 C22            6.6094     4.4030     7.6805 C.ar    
  23 C23            6.1973     4.1649     6.3857 C.ar    
  24 C24            7.9163     5.7053     9.3710 C.3     
  25 N25            6.9799     6.6370    10.0136 N.3     
  26 C26            7.2366     6.7294    11.4582 C.3     
  27 C27            6.2805     7.7528    12.0766 C.3     
  28 O28            4.9321     7.3722    11.7895 O.3     
  29 C29            4.6470     7.2732    10.3916 C.3     
  30 C30            5.5866     6.2450     9.7561 C.3     
  31 C31            6.4878     7.7951    13.5919 C.3     
  32 C32            3.1961     6.8288    10.1963 C.3     
  33 C33            0.0021    -0.0041     0.0020 C.3     
  34 F34            0.6787    -0.4675     1.1354 F       
  35 F35           -1.3104    -0.4883     0.0119 F       
  36 F36            0.6569    -0.4552    -1.1490 F       
  37 H37            5.1592     6.5834     3.7497 H       
  38 H38            4.4652     6.1509     1.4701 H       
  39 H39            4.8679     5.0094    -0.5300 H       
  40 H40            5.6973     3.4346    -0.5461 H       
  41 H41            2.5071     5.1650     0.0067 H       
  42 H42            0.3274     4.0215     0.0206 H       
  43 H43            2.3190     0.2404    -0.0180 H       
  44 H44            4.4947     1.3914    -0.0382 H       
  45 H45            7.9004     6.6562     4.8323 H       
  46 H46            8.6130     7.0696     7.1497 H       
  47 H47            6.2520     3.7756     8.4837 H       
  48 H48            5.5214     3.3496     6.1741 H       
  49 H49            7.9307     4.7658     9.9236 H       
  50 H50            8.9159     6.1398     9.3671 H       
  51 H51            7.0750     5.7551    11.9196 H       
  52 H52            8.2662     7.0457    11.6255 H       
  53 H53            6.4785     8.7377    11.6538 H       
  54 H54            4.7975     8.2442     9.9198 H       
  55 H55            5.4117     6.2077     8.6809 H       
  56 H56            5.3986     5.2630    10.1903 H       
  57 H57            7.5166     8.0815    13.8100 H       
  58 H58            5.8068     8.5239    14.0315 H       
  59 H59            6.2876     6.8102    14.0137 H       
  60 H60            2.5278     7.5593    10.6522 H       
  61 H61            2.9794     6.7536     9.1307 H       
  62 H62            3.0473     5.8569    10.6668 H       
@<TRIPOS>BOND
   1    1   33 1
   2    1   15 1
   3    2    3 am
   4    2   11 1
   5    2    7 1
   6    3    4 1
   7    3    8 2
   8    4    5 2
   9    4    9 1
  10    5    6 1
  11    5   18 1
  12    6    7 2
  13    6   37 1
  14    7   38 1
  15    9   10 3
  16   11   12 1
  17   11   39 1
  18   11   40 1
  19   12   13 ar
  20   12   17 ar
  21   13   14 ar
  22   13   41 1
  23   14   15 ar
  24   14   42 1
  25   15   16 ar
  26   16   17 ar
  27   16   43 1
  28   17   44 1
  29   18   19 ar
  30   18   23 ar
  31   19   20 ar
  32   19   45 1
  33   20   21 ar
  34   20   46 1
  35   21   22 ar
  36   21   24 1
  37   22   23 ar
  38   22   47 1
  39   23   48 1
  40   24   25 1
  41   24   49 1
  42   24   50 1
  43   25   26 1
  44   25   30 1
  45   26   27 1
  46   26   51 1
  47   26   52 1
  48   27   28 1
  49   27   31 1
  50   27   53 1
  51   28   29 1
  52   29   30 1
  53   29   32 1
  54   29   54 1
  55   30   55 1
  56   30   56 1
  57   31   57 1
  58   31   58 1
  59   31   59 1
  60   32   60 1
  61   32   61 1
  62   32   62 1
  63   33   34 1
  64   33   35 1
  65   33   36 1

#	End of record

