#	Name: ASD03240516
#	Creating user name:	WinNT
#	Creation time:	15. 06. 2019 20:35

#	Modifying user name:	WinNT
#	Modification time:	15. 06. 2019 20:35

#	Program:	/corina/corina34_cracker 3.40 0067  02.08.2006

@<TRIPOS>MOLECULE
ASD03240516
  36   38    0    0    0
SMALL
NO_CHARGES


@<TRIPOS>ATOM
   1 C1            -0.0167     1.3789     0.0096 C.ar    
   2 C2             0.0021    -0.0041     0.0020 C.ar    
   3 C3             1.1677     2.0877     0.0021 C.ar    
   4 C4             2.3833     1.4077    -0.0132 C.ar    
   5 C5             2.3965     0.0147    -0.0208 C.ar    
   6 C6             1.2064    -0.6842    -0.0127 C.ar    
   7 C7             3.6605     2.1648    -0.0218 C.2     
   8 C8             4.9152     1.6292    -0.0368 C.2     
   9 N9             5.7949     2.6510    -0.0407 N.pl3   
  10 N10            5.0725     3.8503    -0.0278 N.2     
  11 C11            3.7970     3.5667    -0.0222 C.2     
  12 C12           -1.2942    -0.7726     0.0103 C.3     
  13 C13           -1.3771    -1.6464    -1.2429 C.3     
  14 C14           -3.7807    -1.7027    -1.9392 C.ar    
  15 C15           -2.7238    -2.3205    -1.2971 C.ar    
  16 C16           -1.3509    -1.6261     1.2082 C.1     
  17 C17           -5.0160    -2.3210    -1.9890 C.ar    
  18 C18           -5.1945    -3.5572    -1.3965 C.ar    
  19 C19           -4.1376    -4.1752    -0.7548 C.ar    
  20 C20           -2.9022    -3.5568    -0.7051 C.ar    
  21 N21           -1.3947    -2.2849     2.1327 N.1     
  22 H22           -0.9598     1.9052     0.0170 H       
  23 H23            1.1520     3.1676     0.0077 H       
  24 H24            3.3363    -0.5173    -0.0327 H       
  25 H25            1.2154    -1.7642    -0.0183 H       
  26 H26            5.1596     0.5773    -0.0441 H       
  27 H27            6.7614     2.5693    -0.0503 H       
  28 H28            2.9883     4.2825    -0.0123 H       
  29 H29           -2.1308    -0.0739     0.0221 H       
  30 H30           -1.2461    -1.0247    -2.1286 H       
  31 H31           -0.5931    -2.4030    -1.2108 H       
  32 H32           -3.6424    -0.7349    -2.3982 H       
  33 H33           -5.8418    -1.8382    -2.4903 H       
  34 H34           -6.1598    -4.0400    -1.4348 H       
  35 H35           -4.2771    -5.1409    -0.2919 H       
  36 H36           -2.0766    -4.0395    -0.2034 H       
@<TRIPOS>BOND
   1    1    2 ar
   2    1    3 ar
   3    1   22 1
   4    2   12 1
   5    2    6 ar
   6    3    4 ar
   7    3   23 1
   8    4    5 ar
   9    4    7 1
  10    5    6 ar
  11    5   24 1
  12    6   25 1
  13    7    8 2
  14    7   11 1
  15    8    9 1
  16    8   26 1
  17    9   10 1
  18    9   27 1
  19   10   11 2
  20   11   28 1
  21   12   13 1
  22   12   16 1
  23   12   29 1
  24   13   15 1
  25   13   30 1
  26   13   31 1
  27   14   15 ar
  28   14   17 ar
  29   14   32 1
  30   15   20 ar
  31   16   21 3
  32   17   18 ar
  33   17   33 1
  34   18   19 ar
  35   18   34 1
  36   19   20 ar
  37   19   35 1
  38   20   36 1

#	End of record

