#	Name: ASD02030263
#	Creating user name:	WinNT
#	Creation time:	15. 06. 2019 20:14

#	Modifying user name:	WinNT
#	Modification time:	15. 06. 2019 20:14

#	Program:	/corina/corina34_cracker 3.40 0067  02.08.2006

@<TRIPOS>MOLECULE
ASD02030263
  46   49    0    0    0
SMALL
NO_CHARGES


@<TRIPOS>ATOM
   1 N1             0.1400     1.8512    -0.1553 N.am    
   2 C2             0.3858     0.4048    -0.2412 C.3     
   3 C3            -0.3177    -0.2827     0.9355 C.3     
   4 N4            -1.7053     0.1975     0.9985 N.am    
   5 C5            -1.9511     1.6439     1.0844 C.3     
   6 C6            -1.2474     2.3310    -0.0867 C.3     
   7 C7             1.1688     2.7217    -0.1341 C.2     
   8 C8             2.5579     2.2225    -0.0534 C.2     
   9 N9             3.6489     2.9486    -0.1689 N.2     
  10 N10            2.9293     0.9463     0.1569 N.2     
  11 C11            4.2377     0.9176     0.1608 C.2     
  12 N12            4.6737     2.1775    -0.0441 N.pl3   
  13 C13            6.0145     2.5797    -0.1108 C.ar    
  14 O14            0.9543     3.9173    -0.1814 O.2     
  15 C15           -2.7340    -0.6730     0.9773 C.2     
  16 C16           -2.4806    -2.1020     0.7738 C.2     
  17 O17           -3.8734    -0.2724     1.1273 O.2     
  18 C18            6.3301     3.9137    -0.3277 C.ar    
  19 C19            7.6549     4.3075    -0.3925 C.ar    
  20 C20            8.6641     3.3713    -0.2412 C.ar    
  21 C21            8.3505     2.0421    -0.0257 C.ar    
  22 C22            7.0297     1.6449     0.0456 C.ar    
  23 F23            7.9640     5.6056    -0.6040 F       
  24 C24           -3.4305    -3.0702     0.6109 C.2     
  25 C25           -1.3916     2.1824     2.4027 C.3     
  26 O26           -1.2679    -2.6907     0.7086 O.3     
  27 C27           -1.4227    -4.0073     0.5140 C.2     
  28 C28           -2.7461    -4.2843     0.4478 C.2     
  29 Br29          -3.5257    -5.9870     0.1857 Br      
  30 Br30          -0.0236    -5.2692     0.3528 Br      
  31 H31           -0.0128     0.0211    -1.1804 H       
  32 H32            1.4574     0.2121    -0.1899 H       
  33 H33           -0.3106    -1.3623     0.7859 H       
  34 H34            0.1972    -0.0362     1.8641 H       
  35 H35           -3.0227     1.8366     1.0331 H       
  36 H36           -1.2552     3.4105     0.0642 H       
  37 H37           -1.7602     2.0854    -1.0166 H       
  38 H38            4.8562     0.0440     0.3049 H       
  39 H39            5.5426     4.6434    -0.4459 H       
  40 H40            9.6978     3.6800    -0.2921 H       
  41 H41            9.1396     1.3140     0.0913 H       
  42 H42            6.7863     0.6063     0.2141 H       
  43 H43           -4.5012    -2.9286     0.6085 H       
  44 H44           -0.3188     1.9942     2.4460 H       
  45 H45           -1.5750     3.2551     2.4641 H       
  46 H46           -1.8823     1.6815     3.2373 H       
@<TRIPOS>BOND
   1    1    2 1
   2    1    7 am
   3    1    6 1
   4    2    3 1
   5    2   31 1
   6    2   32 1
   7    3    4 1
   8    3   33 1
   9    3   34 1
  10    4    5 1
  11    4   15 am
  12    5    6 1
  13    5   25 1
  14    5   35 1
  15    6   36 1
  16    6   37 1
  17    7    8 1
  18    7   14 2
  19    8    9 2
  20    8   10 1
  21    9   12 1
  22   10   11 2
  23   11   12 1
  24   11   38 1
  25   12   13 1
  26   13   18 ar
  27   13   22 ar
  28   15   16 1
  29   15   17 2
  30   16   26 1
  31   16   24 2
  32   18   19 ar
  33   18   39 1
  34   19   20 ar
  35   19   23 1
  36   20   21 ar
  37   20   40 1
  38   21   22 ar
  39   21   41 1
  40   22   42 1
  41   24   28 1
  42   24   43 1
  43   25   44 1
  44   25   45 1
  45   25   46 1
  46   26   27 1
  47   27   28 2
  48   27   30 1
  49   28   29 1

#	End of record

