#	Name: ASD03331862
#	Creating user name:	WinNT
#	Creation time:	15. 06. 2019 20:40

#	Modifying user name:	WinNT
#	Modification time:	15. 06. 2019 20:40

#	Program:	/corina/corina34_cracker 3.40 0067  02.08.2006

@<TRIPOS>MOLECULE
ASD03331862
  44   46    0    0    0
SMALL
NO_CHARGES


@<TRIPOS>ATOM
   1 C1             1.1630    -0.4227    -1.2323 C.ar    
   2 C2             0.6529     0.0145    -2.4438 C.ar    
   3 C3             1.1656     1.1497    -3.0430 C.ar    
   4 C4             2.1885     1.8519    -2.4355 C.ar    
   5 C5             2.7025     1.4174    -1.2209 C.ar    
   6 C6             2.1868     0.2770    -0.6196 C.ar    
   7 N7             3.7389     2.1272    -0.6043 N.am    
   8 C8             3.7800     3.4715    -0.6916 C.2     
   9 N9             4.7248     4.1617    -0.0226 N.am    
  10 O10            2.9648     4.0617    -1.3740 O.2     
  11 C11            4.8284     5.5475    -0.1887 C.ar    
  12 C12            3.7812     7.6824    -0.5307 C.ar    
  13 C13            3.6831     6.3135    -0.3658 C.ar    
  14 C14            6.0739     6.1570    -0.1709 C.ar    
  15 C15            6.1719     7.5361    -0.3367 C.ar    
  16 C16            5.0175     8.2962    -0.5196 C.ar    
  17 C17            7.5008     8.1947    -0.3182 C.ar    
  18 N18            8.5868     7.4545    -0.1426 N.ar    
  19 C19            9.7901     8.0062    -0.1207 C.ar    
  20 C20            9.9104     9.3734    -0.2838 C.ar    
  21 C21            8.7487    10.1276    -0.4669 C.ar    
  22 N22            7.5737     9.5079    -0.4832 N.ar    
  23 N23            8.8214    11.5010    -0.6343 N.pl3   
  24 C24           10.1268    12.1592    -0.7299 C.3     
  25 C25            7.5930    12.2951    -0.7158 C.3     
  26 F26            0.6566    -1.5296    -0.6463 F       
  27 H27           -0.1465    -0.5328    -2.9211 H       
  28 H28            0.7662     1.4880    -3.9877 H       
  29 H29            2.5885     2.7383    -2.9053 H       
  30 H30            2.5846    -0.0632     0.3251 H       
  31 H31            4.4277     1.6517    -0.1140 H       
  32 H32            5.3330     3.6979     0.5740 H       
  33 H33            2.8879     8.2735    -0.6688 H       
  34 H34            2.7133     5.8382    -0.3750 H       
  35 H35            6.9651     5.5638    -0.0286 H       
  36 H36            5.0904     9.3660    -0.6486 H       
  37 H37           10.6684     7.3944     0.0233 H       
  38 H38           10.8804     9.8480    -0.2695 H       
  39 H39           10.4382    12.1987    -1.7737 H       
  40 H40           10.0528    13.1721    -0.3342 H       
  41 H41           10.8605    11.5964    -0.1528 H       
  42 H42            6.7285    11.6373    -0.6256 H       
  43 H43            7.5789    13.0265     0.0923 H       
  44 H44            7.5576    12.8123    -1.6746 H       
@<TRIPOS>BOND
   1    1    2 ar
   2    1    6 ar
   3    1   26 1
   4    2    3 ar
   5    2   27 1
   6    3    4 ar
   7    3   28 1
   8    4    5 ar
   9    4   29 1
  10    5    6 ar
  11    5    7 1
  12    6   30 1
  13    7    8 am
  14    7   31 1
  15    8    9 am
  16    8   10 2
  17    9   11 1
  18    9   32 1
  19   11   14 ar
  20   11   13 ar
  21   12   13 ar
  22   12   16 ar
  23   12   33 1
  24   13   34 1
  25   14   15 ar
  26   14   35 1
  27   15   16 ar
  28   15   17 1
  29   16   36 1
  30   17   18 ar
  31   17   22 ar
  32   18   19 ar
  33   19   20 ar
  34   19   37 1
  35   20   21 ar
  36   20   38 1
  37   21   22 ar
  38   21   23 1
  39   23   24 1
  40   23   25 1
  41   24   39 1
  42   24   40 1
  43   24   41 1
  44   25   42 1
  45   25   43 1
  46   25   44 1

#	End of record

