#	Name: ASD09610060
#	Creating user name:	WinNT
#	Creation time:	15. 06. 2019 21:22

#	Modifying user name:	WinNT
#	Modification time:	15. 06. 2019 21:22

#	Program:	/corina/corina34_cracker 3.40 0067  02.08.2006

@<TRIPOS>MOLECULE
ASD09610060
  47   49    0    0    0
SMALL
NO_CHARGES


@<TRIPOS>ATOM
   1 C1            -0.0184     1.5028     0.0103 C.2     
   2 C2             0.0021    -0.0041     0.0020 C.3     
   3 O3             1.0235     2.1233     0.0037 O.2     
   4 N4            -1.1946     2.1607     0.0195 N.am    
   5 C5             1.4295    -0.4870    -0.0142 C.ar    
   6 C6             2.0956    -0.7149     1.1754 C.ar    
   7 C7             3.4050    -1.1579     1.1606 C.ar    
   8 C8             4.0481    -1.3733    -0.0440 C.ar    
   9 C9             3.3817    -1.1463    -1.2336 C.ar    
  10 C10            2.0709    -0.7075    -1.2187 C.ar    
  11 C11           -1.2134     3.5503     0.0271 C.2     
  12 C12           -2.5032     4.2718     0.0371 C.ar    
  13 C13           -3.1218     4.6212    -1.1660 C.ar    
  14 C14           -4.3294     5.2967    -1.1484 C.ar    
  15 C15           -4.9255     5.6268     0.0576 C.ar    
  16 C16           -4.3204     5.2856     1.2525 C.ar    
  17 C17           -3.1143     4.6036     1.2520 C.ar    
  18 F18           -4.9285     5.6356    -2.3109 F       
  19 F19           -2.5423     4.3007    -2.3435 F       
  20 O20           -2.5240     4.2631     2.4268 O.3     
  21 C21           -3.2054     4.6344     3.6268 C.3     
  22 F22           -3.3516     6.0251     3.6688 F       
  23 F23           -4.4677     4.0318     3.6518 F       
  24 N24           -0.0958     4.2160     0.0254 N.2     
  25 O25           -0.1151     5.6318     0.0332 O.3     
  26 C26            1.1824     6.2307     0.0303 C.3     
  27 C27            1.0409     7.7541     0.0393 C.3     
  28 C28            2.3223     8.5820     0.1560 C.3     
  29 C29            1.5702     8.5199    -1.1750 C.3     
  30 H30           -0.4983    -0.3791     0.8948 H       
  31 H31           -0.5153    -0.3696    -0.8850 H       
  32 H32           -2.0280     1.6644     0.0207 H       
  33 H33            1.5932    -0.5466     2.1165 H       
  34 H34            3.9256    -1.3353     2.0900 H       
  35 H35            5.0713    -1.7187    -0.0556 H       
  36 H36            3.8843    -1.3143    -2.1747 H       
  37 H37            1.5491    -0.5336    -2.1482 H       
  38 H38           -5.8680     6.1541     0.0643 H       
  39 H39           -4.7911     5.5471     2.1887 H       
  40 H40           -2.6277     4.3035     4.4898 H       
  41 H41            1.7318     5.9116     0.9160 H       
  42 H42            1.7234     5.9213    -0.8639 H       
  43 H43            0.1460     8.1403     0.5273 H       
  44 H44            2.2704     9.5129     0.7205 H       
  45 H45            3.2661     8.0413     0.2264 H       
  46 H46            2.0192     7.9384    -1.9802 H       
  47 H47            1.0234     9.4101    -1.4860 H       
@<TRIPOS>BOND
   1    1    2 1
   2    1    3 2
   3    1    4 am
   4    2    5 1
   5    2   30 1
   6    2   31 1
   7    4   11 1
   8    4   32 1
   9    5    6 ar
  10    5   10 ar
  11    6    7 ar
  12    6   33 1
  13    7    8 ar
  14    7   34 1
  15    8    9 ar
  16    8   35 1
  17    9   10 ar
  18    9   36 1
  19   10   37 1
  20   11   12 1
  21   11   24 2
  22   12   13 ar
  23   12   17 ar
  24   13   14 ar
  25   13   19 1
  26   14   15 ar
  27   14   18 1
  28   15   16 ar
  29   15   38 1
  30   16   17 ar
  31   16   39 1
  32   17   20 1
  33   20   21 1
  34   21   22 1
  35   21   23 1
  36   21   40 1
  37   24   25 1
  38   25   26 1
  39   26   27 1
  40   26   41 1
  41   26   42 1
  42   27   28 1
  43   27   29 1
  44   27   43 1
  45   28   29 1
  46   28   44 1
  47   28   45 1
  48   29   46 1
  49   29   47 1

#	End of record

