#	Name: ASD06170131
#	Creating user name:	WinNT
#	Creation time:	15. 06. 2019 21:05

#	Modifying user name:	WinNT
#	Modification time:	15. 06. 2019 21:05

#	Program:	/corina/corina34_cracker 3.40 0067  02.08.2006

@<TRIPOS>MOLECULE
ASD06170131
  67   71    0    0    0
SMALL
NO_CHARGES


@<TRIPOS>ATOM
   1 C1             0.6013     1.6846    -0.7386 C.2     
   2 C2             0.7935     0.2712    -1.1185 C.ar    
   3 C3             2.0818    -0.2663    -1.1887 C.ar    
   4 C4             2.2567    -1.5870    -1.5435 C.ar    
   5 C5             1.1518    -2.3835    -1.8318 C.ar    
   6 C6            -0.1293    -1.8510    -1.7631 C.ar    
   7 C7            -0.3120    -0.5337    -1.4032 C.ar    
   8 O8             1.5643     2.3826    -0.4862 O.2     
   9 N9            -0.6413     2.2028    -0.6768 N.am    
  10 F10            3.5011    -2.1085    -1.6119 F       
  11 C11           -0.8320     3.6055    -0.2997 C.3     
  12 N12           -4.3309     4.5234    -1.0229 N.am    
  13 N13           -4.3787     4.2611     0.3527 N.pl3   
  14 C14           -3.1257     3.9022     0.7618 C.2     
  15 C15           -2.3033     3.9319    -0.3064 C.2     
  16 C16           -3.0619     4.3237    -1.4339 C.2     
  17 C17           -5.4064     4.9158    -1.8261 C.ar    
  18 C18           -6.6132     4.2318    -1.7561 C.ar    
  19 C19           -7.6733     4.6218    -2.5506 C.ar    
  20 C20           -7.5343     5.6920    -3.4153 C.ar    
  21 C21           -6.3339     6.3748    -3.4878 C.ar    
  22 C22           -5.2718     5.9938    -2.6914 C.ar    
  23 O23           -2.6448     4.4568    -2.5704 O.2     
  24 C24           -2.7295     3.5360     2.1689 C.3     
  25 C25           -5.5667     4.3557     1.2047 C.3     
  26 O26            1.3269    -3.6835    -2.1814 O.3     
  27 N27            1.8708    -6.4257     0.8512 N.ar    
  28 C28            1.5939    -5.1746     1.1345 C.ar    
  29 C29            1.4044    -4.2230     0.1402 C.ar    
  30 C30            1.5073    -4.5906    -1.1897 C.ar    
  31 C31            1.8058    -5.9402    -1.4829 C.ar    
  32 C32            1.9265    -6.3877    -2.8070 C.ar    
  33 C33            2.2163    -7.6987    -3.0532 C.ar    
  34 C34            2.3940    -8.6024    -1.9959 C.ar    
  35 C35            2.2816    -8.1935    -0.6984 C.ar    
  36 C36            1.9851    -6.8504    -0.4128 C.ar    
  37 O37            2.6814    -9.9027    -2.2665 O.3     
  38 C38            2.8514   -10.7758    -1.1482 C.3     
  39 O39            2.3333    -8.1326    -4.3365 O.3     
  40 C40            2.1405    -7.1638    -5.3691 C.3     
  41 H41            2.9388     0.3519    -0.9657 H       
  42 H42           -0.9839    -2.4718    -1.9882 H       
  43 H43           -1.3090    -0.1224    -1.3459 H       
  44 H44           -1.4093     1.6470    -0.8820 H       
  45 H45           -0.4275     3.7716     0.6987 H       
  46 H46           -0.3143     4.2471    -1.0128 H       
  47 H47           -6.7223     3.3957    -1.0812 H       
  48 H48           -8.6119     4.0902    -2.4969 H       
  49 H49           -8.3648     5.9950    -4.0356 H       
  50 H50           -6.2285     7.2100    -4.1644 H       
  51 H51           -4.3362     6.5305    -2.7450 H       
  52 H52           -3.6011     3.6001     2.8202 H       
  53 H53           -2.3392     2.5184     2.1833 H       
  54 H54           -1.9614     4.2247     2.5210 H       
  55 H55           -6.3997     4.7519     0.6240 H       
  56 H56           -5.8241     3.3655     1.5805 H       
  57 H57           -5.3601     5.0203     2.0436 H       
  58 H58            1.5111    -4.8765     2.1692 H       
  59 H59            1.1768    -3.2008     0.4043 H       
  60 H60            1.7905    -5.6986    -3.6274 H       
  61 H61            2.4203    -8.9004     0.1062 H       
  62 H62            3.6733   -10.4170    -0.5287 H       
  63 H63            1.9342   -10.7950    -0.5595 H       
  64 H64            3.0763   -11.7815    -1.5033 H       
  65 H65            1.1371    -6.7453    -5.2919 H       
  66 H66            2.8760    -6.3666    -5.2613 H       
  67 H67            2.2614    -7.6406    -6.3419 H       
@<TRIPOS>BOND
   1    1    2 1
   2    1    8 2
   3    1    9 am
   4    2    3 ar
   5    2    7 ar
   6    3    4 ar
   7    3   41 1
   8    4    5 ar
   9    4   10 1
  10    5    6 ar
  11    5   26 1
  12    6    7 ar
  13    6   42 1
  14    7   43 1
  15    9   11 1
  16    9   44 1
  17   11   15 1
  18   11   45 1
  19   11   46 1
  20   12   13 1
  21   12   16 am
  22   12   17 1
  23   13   14 1
  24   13   25 1
  25   14   15 2
  26   14   24 1
  27   15   16 1
  28   16   23 2
  29   17   18 ar
  30   17   22 ar
  31   18   19 ar
  32   18   47 1
  33   19   20 ar
  34   19   48 1
  35   20   21 ar
  36   20   49 1
  37   21   22 ar
  38   21   50 1
  39   22   51 1
  40   24   52 1
  41   24   53 1
  42   24   54 1
  43   25   55 1
  44   25   56 1
  45   25   57 1
  46   26   30 1
  47   27   28 ar
  48   27   36 ar
  49   28   29 ar
  50   28   58 1
  51   29   30 ar
  52   29   59 1
  53   30   31 ar
  54   31   32 ar
  55   31   36 ar
  56   32   33 ar
  57   32   60 1
  58   33   34 ar
  59   33   39 1
  60   34   35 ar
  61   34   37 1
  62   35   36 ar
  63   35   61 1
  64   37   38 1
  65   38   62 1
  66   38   63 1
  67   38   64 1
  68   39   40 1
  69   40   65 1
  70   40   66 1
  71   40   67 1

#	End of record

