#	Name: ASD01900184
#	Creating user name:	WinNT
#	Creation time:	15. 06. 2019 19:51

#	Modifying user name:	WinNT
#	Modification time:	15. 06. 2019 19:51

#	Program:	/corina/corina34_cracker 3.40 0067  02.08.2006

@<TRIPOS>MOLECULE
ASD01900184
  30   33    0    0    0
SMALL
NO_CHARGES


@<TRIPOS>ATOM
   1 N1            -0.0167     1.3833     0.0096 N.pl3   
   2 S2            -1.3858    -1.0024     0.0099 S.3     
   3 C3             0.0021    -0.0041     0.0020 C.2     
   4 N4             1.0750    -0.7324    -0.0126 N.2     
   5 C5             0.9075    -2.0423    -0.0184 C.2     
   6 C6            -0.3660    -2.4388    -0.0082 C.2     
   7 S7             1.3140     3.8493     0.0102 S.3     
   8 C8             1.1749     2.0930     0.0021 C.2     
   9 N9             2.3620     1.5666    -0.0116 N.2     
  10 C10            3.3903     2.3963    -0.0008 C.2     
  11 C11            4.8466     2.0580     0.1318 C.2     
  12 C12            5.6605     2.8167     0.9977 C.2     
  13 C13            5.1185     3.8804     1.9032 C.3     
  14 C14            4.7695     5.1777     1.1534 C.3     
  15 C15            4.0760     4.8071    -0.1670 C.3     
  16 C16            3.0645     3.7117    -0.0391 C.2     
  17 N17            6.8785     2.3755     0.8732 N.2     
  18 N18            6.8712     1.2984    -0.0277 N.pl3   
  19 C19            5.5992     1.1173    -0.4621 C.2     
  20 H20           -0.8633     1.8568     0.0162 H       
  21 H21            1.7347    -2.7365    -0.0310 H       
  22 H22           -0.7116    -3.4620    -0.0099 H       
  23 H23            4.2195     3.5030     2.3906 H       
  24 H24            5.8627     4.1048     2.6673 H       
  25 H25            4.0982     5.7832     1.7622 H       
  26 H26            5.6819     5.7361     0.9436 H       
  27 H27            3.5788     5.6945    -0.5587 H       
  28 H28            4.8366     4.4952    -0.8828 H       
  29 H29            7.6429     0.7742    -0.2935 H       
  30 H30            5.2569     0.3613    -1.1533 H       
@<TRIPOS>BOND
   1    1    3 1
   2    1    8 1
   3    1   20 1
   4    2    3 1
   5    2    6 1
   6    3    4 2
   7    4    5 1
   8    5    6 2
   9    5   21 1
  10    6   22 1
  11    7    8 1
  12    7   16 1
  13    8    9 2
  14    9   10 1
  15   10   11 1
  16   10   16 2
  17   11   12 1
  18   11   19 2
  19   12   13 1
  20   12   17 2
  21   13   14 1
  22   13   23 1
  23   13   24 1
  24   14   15 1
  25   14   25 1
  26   14   26 1
  27   15   16 1
  28   15   27 1
  29   15   28 1
  30   17   18 1
  31   18   19 1
  32   18   29 1
  33   19   30 1

#	End of record

