#	Name: ASD01870300
#	Creating user name:	WinNT
#	Creation time:	15. 06. 2019 19:39

#	Modifying user name:	WinNT
#	Modification time:	15. 06. 2019 19:39

#	Program:	/corina/corina34_cracker 3.40 0067  02.08.2006

@<TRIPOS>MOLECULE
ASD01870300
  40   42    0    0    0
SMALL
NO_CHARGES


@<TRIPOS>ATOM
   1 N1            -0.2357     1.3580     0.1377 N.2     
   2 C2            -0.4087     0.0437     0.1805 C.2     
   3 C3             0.7140    -0.6801     0.3466 C.2     
   4 S4             2.0760     0.4330     0.4526 S.3     
   5 C5             0.9782     1.7962     0.2587 C.2     
   6 N6             1.3545     3.1325     0.2376 N.am    
   7 C7             2.7653     3.4986     0.3853 C.3     
   8 C8             0.4218     4.0928     0.0814 C.2     
   9 C9             0.7999     5.5154     0.1995 C.ar    
  10 O10           -0.7307     3.7879    -0.1568 O.2     
  11 C11            1.9503     5.9899    -0.4347 C.ar    
  12 C12            0.0052     6.3926     0.9411 C.ar    
  13 C13            0.3626     7.7195     1.0477 C.ar    
  14 C14            1.5083     8.1842     0.4200 C.ar    
  15 C15            2.2983     7.3188    -0.3214 C.ar    
  16 F16            1.8537     9.4859     0.5274 F       
  17 C17           -1.7448    -0.5841     0.0548 C.ar    
  18 C18           -2.8729     0.2181    -0.1153 C.ar    
  19 C19           -4.1133    -0.3827    -0.2312 C.ar    
  20 C20           -4.1871    -1.7681    -0.1733 C.ar    
  21 C21           -3.0290    -2.5024    -0.0030 C.ar    
  22 N22           -1.8581    -1.9058     0.0994 N.ar    
  23 C23            3.4757     3.3449    -0.9611 C.3     
  24 C24            4.9096     3.8653    -0.8435 C.3     
  25 H25            0.7702    -1.7570     0.4055 H       
  26 H26            2.8391     4.5336     0.7189 H       
  27 H27            3.2351     2.8454     1.1206 H       
  28 H28            2.5663     5.3168    -1.0124 H       
  29 H29           -0.8878     6.0319     1.4298 H       
  30 H30           -0.2512     8.3986     1.6209 H       
  31 H31            3.1876     7.6868    -0.8114 H       
  32 H32           -2.7793     1.2933    -0.1556 H       
  33 H33           -5.0048     0.2125    -0.3633 H       
  34 H34           -5.1410    -2.2671    -0.2603 H       
  35 H35           -3.0835    -3.5801     0.0423 H       
  36 H36            3.4932     2.2926    -1.2446 H       
  37 H37            2.9426     3.9170    -1.7205 H       
  38 H38            5.4426     3.2932    -0.0841 H       
  39 H39            5.4157     3.7558    -1.8027 H       
  40 H40            4.8921     4.9177    -0.5600 H       
@<TRIPOS>BOND
   1    1    2 1
   2    1    5 2
   3    2    3 2
   4    2   17 1
   5    3    4 1
   6    3   25 1
   7    4    5 1
   8    5    6 1
   9    6    7 1
  10    6    8 am
  11    7   23 1
  12    7   26 1
  13    7   27 1
  14    8    9 1
  15    8   10 2
  16    9   12 ar
  17    9   11 ar
  18   11   15 ar
  19   11   28 1
  20   12   13 ar
  21   12   29 1
  22   13   14 ar
  23   13   30 1
  24   14   15 ar
  25   14   16 1
  26   15   31 1
  27   17   18 ar
  28   17   22 ar
  29   18   19 ar
  30   18   32 1
  31   19   20 ar
  32   19   33 1
  33   20   21 ar
  34   20   34 1
  35   21   22 ar
  36   21   35 1
  37   23   24 1
  38   23   36 1
  39   23   37 1
  40   24   38 1
  41   24   39 1
  42   24   40 1

#	End of record

