#	Name: ASD01915427
#	Creating user name:	WinNT
#	Creation time:	15. 06. 2019 20:05

#	Modifying user name:	WinNT
#	Modification time:	15. 06. 2019 20:05

#	Program:	/corina/corina34_cracker 3.40 0067  02.08.2006

@<TRIPOS>MOLECULE
ASD01915427
  45   49    0    0    0
SMALL
NO_CHARGES


@<TRIPOS>ATOM
   1 N1            -0.0169     1.3936     0.0097 N.pl3   
   2 N2             0.0021    -0.0041     0.0020 N.2     
   3 C3             1.2407    -0.4349    -0.0121 C.2     
   4 C4             2.1134     0.7408    -0.0141 C.ar    
   5 C5             1.2676     1.8669    -0.0000 C.ar    
   6 N6             1.7798     3.0923     0.0020 N.ar    
   7 C7             3.5085     0.9202    -0.0272 C.ar    
   8 C8             4.0014     2.2379    -0.0255 C.ar    
   9 C9             3.0831     3.3083    -0.0088 C.ar    
  10 C10            1.6769    -1.8517    -0.0239 C.ar    
  11 C11            3.5893     4.7004    -0.0058 C.ar    
  12 C12            5.4113     2.4881    -0.0382 C.1     
  13 C13            4.4276    -0.2392    -0.0417 C.ar    
  14 C14            5.2333     6.3143     0.6710 C.ar    
  15 C15            4.7666     5.0158     0.6722 C.ar    
  16 C16            2.8936     5.6998    -0.6857 C.ar    
  17 C17            3.3704     6.9947    -0.6796 C.ar    
  18 C18            4.5362     7.3023    -0.0013 C.ar    
  19 C19            5.2516    -0.4663    -1.1448 C.ar    
  20 C20            6.1064    -1.5492    -1.1521 C.ar    
  21 C21            6.1477    -2.4091    -0.0690 C.ar    
  22 C22            5.3332    -2.1895     1.0278 C.ar    
  23 C23            4.4782    -1.1070     1.0500 C.ar    
  24 C24            0.9453    -2.8149     0.6691 C.ar    
  25 C25            1.3562    -4.1322     0.6546 C.ar    
  26 C26            2.4920    -4.4976    -0.0454 C.ar    
  27 C27            3.2223    -3.5461    -0.7346 C.ar    
  28 C28            2.8172    -2.2268    -0.7327 C.ar    
  29 N29            6.5298     2.6865    -0.0483 N.1     
  30 H30           -0.8163     1.9429     0.0166 H       
  31 H31            6.1447     6.5599     1.1959 H       
  32 H32            5.3116     4.2454     1.1973 H       
  33 H33            1.9837     5.4607    -1.2161 H       
  34 H34            2.8325     7.7695    -1.2057 H       
  35 H35            4.9053     8.3173     0.0010 H       
  36 H36            5.2201     0.2040    -1.9910 H       
  37 H37            6.7444    -1.7263    -2.0053 H       
  38 H38            6.8183    -3.2556    -0.0797 H       
  39 H39            5.3699    -2.8646     1.8700 H       
  40 H40            3.8464    -0.9339     1.9087 H       
  41 H41            0.0587    -2.5307     1.2166 H       
  42 H42            0.7902    -4.8793     1.1911 H       
  43 H43            2.8101    -5.5297    -0.0537 H       
  44 H44            4.1086    -3.8370    -1.2788 H       
  45 H45            3.3852    -1.4857    -1.2753 H       
@<TRIPOS>BOND
   1    1    2 1
   2    1    5 1
   3    1   30 1
   4    2    3 2
   5    3    4 1
   6    3   10 1
   7    4    7 ar
   8    4    5 ar
   9    5    6 ar
  10    6    9 ar
  11    7    8 ar
  12    7   13 1
  13    8    9 ar
  14    8   12 1
  15    9   11 1
  16   10   24 ar
  17   10   28 ar
  18   11   16 ar
  19   11   15 ar
  20   12   29 3
  21   13   19 ar
  22   13   23 ar
  23   14   15 ar
  24   14   18 ar
  25   14   31 1
  26   15   32 1
  27   16   17 ar
  28   16   33 1
  29   17   18 ar
  30   17   34 1
  31   18   35 1
  32   19   20 ar
  33   19   36 1
  34   20   21 ar
  35   20   37 1
  36   21   22 ar
  37   21   38 1
  38   22   23 ar
  39   22   39 1
  40   23   40 1
  41   24   25 ar
  42   24   41 1
  43   25   26 ar
  44   25   42 1
  45   26   27 ar
  46   26   43 1
  47   27   28 ar
  48   27   44 1
  49   28   45 1

#	End of record

