#	Name: ASD03331514
#	Creating user name:	WinNT
#	Creation time:	15. 06. 2019 20:39

#	Modifying user name:	WinNT
#	Modification time:	15. 06. 2019 20:39

#	Program:	/corina/corina34_cracker 3.40 0067  02.08.2006

@<TRIPOS>MOLECULE
ASD03331514
  66   68    0    0    0
SMALL
NO_CHARGES


@<TRIPOS>ATOM
   1 C1             0.8096     1.7872     0.3672 C.ar    
   2 C2             0.6440     0.3173     0.3573 C.2     
   3 N3            -0.4413    -0.3648     0.8243 N.pl3   
   4 C4            -0.1951    -1.6906     0.6523 C.2     
   5 C5             1.0277    -1.7974     0.0621 C.2     
   6 N6             1.5141    -0.5484    -0.1075 N.2     
   7 C7             1.6979    -3.0508    -0.3270 C.2     
   8 N8             2.9142    -3.0129    -0.9062 N.am    
   9 C9            -0.3041     2.6177     0.2409 C.ar    
  10 O10            1.1533    -4.1194    -0.1255 O.2     
  11 C11            3.5805    -4.2589    -1.2930 C.3     
  12 C12           -0.1455     3.9882     0.2511 C.ar    
  13 C13            1.1170     4.5412     0.3866 C.ar    
  14 C14            2.2292     3.7203     0.5127 C.ar    
  15 C15            2.0799     2.3474     0.5089 C.ar    
  16 C16           -1.6654     0.2054     1.3936 C.3     
  17 C17           -2.0221    -0.5512     2.6769 C.3     
  18 C18           -2.8807    -1.7656     2.3382 C.3     
  19 N19           -2.4995    -2.3361     1.0447 N.3     
  20 C20           -1.1097    -2.8161     1.0609 C.3     
  21 C21            3.0956    -4.6874    -2.6794 C.3     
  22 N22            5.9080    -5.0721    -1.0927 N.am    
  23 C23            5.0714    -4.0418    -1.3272 C.2     
  24 C24            7.3522    -4.8393    -1.0126 C.3     
  25 O25            5.5184    -2.9398    -1.5656 O.2     
  26 C26            3.3226    -3.5472    -3.6740 C.3     
  27 C27            3.8758    -5.9229    -3.1332 C.3     
  28 C28            1.6037    -5.0207    -2.6174 C.3     
  29 C29           -0.7381    -1.0131     3.3688 C.3     
  30 C30           -2.7987     0.3754     3.6146 C.3     
  31 C31           -3.4223    -3.4088     0.6500 C.3     
  32 F32            3.4586     4.2649     0.6441 F       
  33 F33            1.2666     5.8839     0.3955 F       
  34 H34            3.3485    -2.1606    -1.0669 H       
  35 H35           -1.2894     2.1883     0.1348 H       
  36 H36            3.3433    -5.0379    -0.5683 H       
  37 H37           -1.0077     4.6312     0.1529 H       
  38 H38            2.9452     1.7087     0.6070 H       
  39 H39           -1.5038     1.2584     1.6244 H       
  40 H40           -2.4800     0.1096     0.6757 H       
  41 H41           -2.7537    -2.5209     3.1137 H       
  42 H42           -3.9277    -1.4644     2.3017 H       
  43 H43           -1.0022    -3.6452     0.3615 H       
  44 H44           -0.8508    -3.1495     2.0658 H       
  45 H45            5.5539    -5.9677    -0.9771 H       
  46 H46            7.8621    -5.7830    -0.8188 H       
  47 H47            7.7059    -4.4222    -1.9554 H       
  48 H48            7.5631    -4.1396    -0.2039 H       
  49 H49            4.3855    -3.3097    -3.7182 H       
  50 H50            2.9771    -3.8524    -4.6617 H       
  51 H51            2.7668    -2.6670    -3.3507 H       
  52 H52            3.6712    -6.7512    -2.4549 H       
  53 H53            3.5688    -6.1958    -4.1429 H       
  54 H54            4.9431    -5.7018    -3.1252 H       
  55 H55            1.0479    -4.1406    -2.2941 H       
  56 H56            1.2582    -5.3260    -3.6051 H       
  57 H57            1.4420    -5.8331    -1.9089 H       
  58 H58           -0.1263    -0.1455     3.6161 H       
  59 H59           -0.9910    -1.5516     4.2821 H       
  60 H60           -0.1821    -1.6712     2.7011 H       
  61 H61           -3.7127     0.7076     3.1222 H       
  62 H62           -3.0530    -0.1622     4.5281 H       
  63 H63           -2.1838     1.2408     3.8615 H       
  64 H64           -4.4329    -3.0080     0.5710 H       
  65 H65           -3.1162    -3.8150    -0.3140 H       
  66 H66           -3.4026    -4.1994     1.4002 H       
@<TRIPOS>BOND
   1    1    2 1
   2    1    9 ar
   3    1   15 ar
   4    2    3 1
   5    2    6 2
   6    3    4 1
   7    3   16 1
   8    4    5 2
   9    4   20 1
  10    5    6 1
  11    5    7 1
  12    7    8 am
  13    7   10 2
  14    8   11 1
  15    8   34 1
  16    9   12 ar
  17    9   35 1
  18   11   21 1
  19   11   23 1
  20   11   36 1
  21   12   13 ar
  22   12   37 1
  23   13   14 ar
  24   13   33 1
  25   14   15 ar
  26   14   32 1
  27   15   38 1
  28   16   17 1
  29   16   39 1
  30   16   40 1
  31   17   18 1
  32   17   29 1
  33   17   30 1
  34   18   19 1
  35   18   41 1
  36   18   42 1
  37   19   20 1
  38   19   31 1
  39   20   43 1
  40   20   44 1
  41   21   26 1
  42   21   27 1
  43   21   28 1
  44   22   23 am
  45   22   24 1
  46   22   45 1
  47   23   25 2
  48   24   46 1
  49   24   47 1
  50   24   48 1
  51   26   49 1
  52   26   50 1
  53   26   51 1
  54   27   52 1
  55   27   53 1
  56   27   54 1
  57   28   55 1
  58   28   56 1
  59   28   57 1
  60   29   58 1
  61   29   59 1
  62   29   60 1
  63   30   61 1
  64   30   62 1
  65   30   63 1
  66   31   64 1
  67   31   65 1
  68   31   66 1

#	End of record

