#	Name: ASD00461042
#	Creating user name:	WinNT
#	Creation time:	15. 06. 2019 18:36

#	Modifying user name:	WinNT
#	Modification time:	15. 06. 2019 18:36

#	Program:	/corina/corina34_cracker 3.40 0067  02.08.2006

@<TRIPOS>MOLECULE
ASD00461042
  62   64    0    0    0
SMALL
NO_CHARGES


@<TRIPOS>ATOM
   1 C1             0.0075     1.4174    -0.0106 C.ar    
   2 C2            -0.0217     0.0401     0.0555 C.ar    
   3 C3             1.1742    -0.6810     0.0610 C.ar    
   4 C4             2.3921    -0.0013    -0.0005 C.ar    
   5 C5             2.4068     1.3768    -0.0663 C.ar    
   6 C6             1.2183     2.0849    -0.0714 C.ar    
   7 C7             3.6877    -0.7709     0.0054 C.3     
   8 O8             4.7410     0.0731     0.4747 O.3     
   9 C9             5.7880    -0.6256     1.1512 C.3     
  10 C10            6.8550     0.3717     1.6071 C.3     
  11 C11            7.9125    -0.3574     2.4384 C.3     
  12 N12            8.8708     0.6178     2.9758 N.3     
  13 C13            9.9034    -0.0478     3.7813 C.3     
  14 O14            7.4734     0.9639     0.4631 O.3     
  15 C15           10.8806     0.9977     4.3226 C.3     
  16 C16            9.2436    -0.7825     4.9500 C.3     
  17 C17           10.6613    -1.0517     2.9104 C.3     
  18 C18           11.9398     0.3149     5.1489 C.ar    
  19 C19           13.1102    -0.1267     4.5353 C.ar    
  20 C20           14.0865    -0.7474     5.2526 C.ar    
  21 C21           13.9148    -0.9470     6.6327 C.ar    
  22 C22           12.7243    -0.4974     7.2571 C.ar    
  23 C23           11.7412     0.1438     6.4847 C.ar    
  24 C24           14.9001    -1.5843     7.4063 C.ar    
  25 C25           14.6989    -1.7607     8.7406 C.ar    
  26 C26           13.5283    -1.3184     9.3546 C.ar    
  27 C27           12.5525    -0.6974     8.6376 C.ar    
  28 C28            1.1508    -2.1564     0.1321 C.2     
  29 O29           -0.0171    -2.8036     0.3103 O.3     
  30 O30            2.1846    -2.7859     0.0299 O.2     
  31 C31            4.0069    -1.2431    -1.4145 C.3     
  32 H32           -0.9167     1.9761    -0.0194 H       
  33 H33           -0.9672    -0.4796     0.1033 H       
  34 H34            3.3482     1.9039    -0.1140 H       
  35 H35            1.2355     3.1635    -0.1227 H       
  36 H36            3.5941    -1.6350     0.6632 H       
  37 H37            5.3785    -1.1418     2.0194 H       
  38 H38            6.2361    -1.3528     0.4741 H       
  39 H39            6.3900     1.1498     2.2124 H       
  40 H40            7.4287    -0.8829     3.2617 H       
  41 H41            8.4387    -1.0747     1.8086 H       
  42 H42            9.2857     1.1630     2.2351 H       
  43 H43            7.9082     0.3286    -0.1221 H       
  44 H44           11.3506     1.5211     3.4900 H       
  45 H45           10.3406     1.7129     4.9430 H       
  46 H46            8.5474    -1.5273     4.5644 H       
  47 H47           10.0098    -1.2764     5.5477 H       
  48 H48            8.7036    -0.0673     5.5705 H       
  49 H49           11.1313    -0.5283     2.0778 H       
  50 H50           11.4274    -1.5456     3.5081 H       
  51 H51            9.9651    -1.7965     2.5248 H       
  52 H52           13.2447     0.0255     3.4746 H       
  53 H53           14.9882    -1.0850     4.7634 H       
  54 H54           10.8292     0.4916     6.9469 H       
  55 H55           15.8120    -1.9325     6.9442 H       
  56 H56           15.4574    -2.2510     9.3327 H       
  57 H57           13.3937    -1.4709    10.4153 H       
  58 H58           11.6508    -0.3597     9.1269 H       
  59 H59            0.0177    -3.7691     0.3505 H       
  60 H60            4.1006    -0.3791    -2.0723 H       
  61 H61            4.9440    -1.7998    -1.4102 H       
  62 H62            3.2035    -1.8869    -1.7725 H       
@<TRIPOS>BOND
   1    1    2 ar
   2    1    6 ar
   3    1   32 1
   4    2    3 ar
   5    2   33 1
   6    3    4 ar
   7    3   28 1
   8    4    5 ar
   9    4    7 1
  10    5    6 ar
  11    5   34 1
  12    6   35 1
  13    7    8 1
  14    7   31 1
  15    7   36 1
  16    8    9 1
  17    9   10 1
  18    9   37 1
  19    9   38 1
  20   10   11 1
  21   10   14 1
  22   10   39 1
  23   11   12 1
  24   11   40 1
  25   11   41 1
  26   12   13 1
  27   12   42 1
  28   13   15 1
  29   13   16 1
  30   13   17 1
  31   14   43 1
  32   15   18 1
  33   15   44 1
  34   15   45 1
  35   16   46 1
  36   16   47 1
  37   16   48 1
  38   17   49 1
  39   17   50 1
  40   17   51 1
  41   18   19 ar
  42   18   23 ar
  43   19   20 ar
  44   19   52 1
  45   20   21 ar
  46   20   53 1
  47   21   22 ar
  48   21   24 ar
  49   22   23 ar
  50   22   27 ar
  51   23   54 1
  52   24   25 ar
  53   24   55 1
  54   25   26 ar
  55   25   56 1
  56   26   27 ar
  57   26   57 1
  58   27   58 1
  59   28   29 1
  60   28   30 2
  61   29   59 1
  62   31   60 1
  63   31   61 1
  64   31   62 1

#	End of record

