#	Name: ASD03470034
#	Creating user name:	WinNT
#	Creation time:	15. 06. 2019 20:42

#	Modifying user name:	WinNT
#	Modification time:	15. 06. 2019 20:42

#	Program:	/corina/corina34_cracker 3.40 0067  02.08.2006

@<TRIPOS>MOLECULE
ASD03470034
  36   39    0    0    0
SMALL
NO_CHARGES


@<TRIPOS>ATOM
   1 Cl1           -0.4663     0.1881     0.8391 Cl      
   2 C2            -0.3949     1.9102     0.6325 C.ar    
   3 C3             0.8254     2.5620     0.6565 C.ar    
   4 C4             0.8884     3.9306     0.4928 C.ar    
   5 C5            -0.2788     4.6668     0.3014 C.ar    
   6 C6            -1.4982     4.0013     0.2787 C.ar    
   7 C7            -1.5590     2.6355     0.4373 C.ar    
   8 C8            -2.5554     5.0582     0.0566 C.3     
   9 C9            -1.7712     6.3498    -0.0358 C.2     
  10 O10           -2.2286     7.4593    -0.2121 O.2     
  11 N11           -0.4733     6.0364     0.1149 N.am    
  12 C12            0.6128     7.0192     0.0869 C.3     
  13 C13            1.0688     7.2234    -1.3349 C.ar    
  14 C14            0.5479     6.4439    -2.3444 C.ar    
  15 C15            0.9620     6.6251    -3.6535 C.ar    
  16 C16            1.9043     7.5915    -3.9627 C.ar    
  17 C17            2.4398     8.3874    -2.9535 C.ar    
  18 C18            2.0166     8.2079    -1.6308 C.ar    
  19 C19            2.5723     9.0484    -0.5547 C.2     
  20 O20            3.5606     8.6846     0.0513 O.2     
  21 O21            1.9841    10.2200    -0.2432 O.3     
  22 O22            3.3355     9.2516    -3.5067 O.3     
  23 C23            3.0449     9.2568    -4.9169 C.3     
  24 O24            2.4666     7.9592    -5.1514 O.3     
  25 H25            1.7335     1.9964     0.8046 H       
  26 H26            1.8446     4.4322     0.5135 H       
  27 H27           -2.5133     2.1303     0.4134 H       
  28 H28           -3.0934     4.8708    -0.8727 H       
  29 H29           -3.2462     5.0903     0.8991 H       
  30 H30            0.2570     7.9657     0.4938 H       
  31 H31            1.4469     6.6561     0.6874 H       
  32 H32           -0.1873     5.6872    -2.1135 H       
  33 H33            0.5479     6.0087    -4.4378 H       
  34 H34            2.4126    10.7596     0.4354 H       
  35 H35            2.3303    10.0439    -5.1579 H       
  36 H36            3.9602     9.3787    -5.4961 H       
@<TRIPOS>BOND
   1    1    2 1
   2    2    3 ar
   3    2    7 ar
   4    3    4 ar
   5    3   25 1
   6    4    5 ar
   7    4   26 1
   8    5    6 ar
   9    5   11 1
  10    6    7 ar
  11    6    8 1
  12    7   27 1
  13    8    9 1
  14    8   28 1
  15    8   29 1
  16    9   10 2
  17    9   11 am
  18   11   12 1
  19   12   13 1
  20   12   30 1
  21   12   31 1
  22   13   14 ar
  23   13   18 ar
  24   14   15 ar
  25   14   32 1
  26   15   16 ar
  27   15   33 1
  28   16   17 ar
  29   16   24 1
  30   17   18 ar
  31   17   22 1
  32   18   19 1
  33   19   20 2
  34   19   21 1
  35   21   34 1
  36   22   23 1
  37   23   24 1
  38   23   35 1
  39   23   36 1

#	End of record

