#	Name: ASD00170371
#	Creating user name:	WinNT
#	Creation time:	15. 06. 2019 18:32

#	Modifying user name:	WinNT
#	Modification time:	15. 06. 2019 18:32

#	Program:	/corina/corina34_cracker 3.40 0067  02.08.2006

@<TRIPOS>MOLECULE
ASD00170371
  39   41    0    0    0
SMALL
NO_CHARGES


@<TRIPOS>ATOM
   1 C1            -0.0231     1.3196    -0.1089 C.2     
   2 C2            -0.0114    -0.0063    -0.1381 C.2     
   3 C3            -1.3450    -0.5630     0.1159 C.2     
   4 C4            -2.3177     0.3841     0.2652 C.2     
   5 S5            -1.6552     1.9434     0.1247 S.3     
   6 C6            -1.6086    -1.9993     0.2005 C.2     
   7 C7            -1.5548    -2.6851     1.5096 C.ar    
   8 O8            -1.8722    -2.6304    -0.8071 O.2     
   9 C9            -1.9063    -4.0324     1.6098 C.ar    
  10 C10           -1.8542    -4.6665     2.8332 C.ar    
  11 C11           -1.4546    -3.9692     3.9613 C.ar    
  12 C12           -1.1047    -2.6323     3.8681 C.ar    
  13 C13           -1.1469    -1.9891     2.6490 C.ar    
  14 N14           -3.6510     0.1134     0.4970 N.pl3   
  15 Cl15          -1.3926    -4.7739     5.4983 Cl      
  16 C16            1.1833     2.2295    -0.2418 C.3     
  17 C17            1.9271     2.2292     1.0971 C.3     
  18 C18            2.2384     0.7806     1.4868 C.3     
  19 C19            3.1573     0.2563     0.4018 C.3     
  20 C20            2.4192    -0.2279    -0.8336 C.3     
  21 C21            1.1322    -0.9586    -0.4726 C.3     
  22 H22           -2.2187    -4.5770     0.7310 H       
  23 H23           -2.1259    -5.7088     2.9120 H       
  24 H24           -0.7939    -2.0937     4.7511 H       
  25 H25           -0.8735    -0.9468     2.5774 H       
  26 H26           -3.9688    -0.8031     0.4866 H       
  27 H27           -4.2703     0.8395     0.6704 H       
  28 H28            1.8402     1.8577    -1.0281 H       
  29 H29            0.8568     3.2414    -0.4816 H       
  30 H30            2.8570     2.7892     0.9988 H       
  31 H31            1.3012     2.6873     1.8630 H       
  32 H32            2.7412     0.7502     2.4534 H       
  33 H33            1.3205     0.1936     1.5193 H       
  34 H34            3.8424     1.0521     0.1097 H       
  35 H35            3.7398    -0.5710     0.8072 H       
  36 H36            2.1768     0.6294    -1.4615 H       
  37 H37            3.0667    -0.9038    -1.3922 H       
  38 H38            1.3207    -1.5985     0.3894 H       
  39 H39            0.8346    -1.5840    -1.3142 H       
@<TRIPOS>BOND
   1    1    2 2
   2    1   16 1
   3    1    5 1
   4    2    3 1
   5    2   21 1
   6    3    4 2
   7    3    6 1
   8    4    5 1
   9    4   14 1
  10    6    7 1
  11    6    8 2
  12    7    9 ar
  13    7   13 ar
  14    9   10 ar
  15    9   22 1
  16   10   11 ar
  17   10   23 1
  18   11   12 ar
  19   11   15 1
  20   12   13 ar
  21   12   24 1
  22   13   25 1
  23   14   26 1
  24   14   27 1
  25   16   17 1
  26   16   28 1
  27   16   29 1
  28   17   18 1
  29   17   30 1
  30   17   31 1
  31   18   19 1
  32   18   32 1
  33   18   33 1
  34   19   20 1
  35   19   34 1
  36   19   35 1
  37   20   21 1
  38   20   36 1
  39   20   37 1
  40   21   38 1
  41   21   39 1

#	End of record

