#	Name: ASD01814756
#	Creating user name:	WinNT
#	Creation time:	15. 06. 2019 19:32

#	Modifying user name:	WinNT
#	Modification time:	15. 06. 2019 19:32

#	Program:	/corina/corina34_cracker 3.40 0067  02.08.2006

@<TRIPOS>MOLECULE
ASD01814756
  51   54    0    0    0
SMALL
NO_CHARGES


@<TRIPOS>ATOM
   1 C1             0.1526     0.6510     0.1657 C.2     
   2 C2             0.3511    -0.7184     0.3974 C.2     
   3 C3             1.6197    -1.2061     0.4952 C.2     
   4 C4             2.7100    -0.3273     0.3620 C.2     
   5 N5             2.4873     1.0062     0.1363 N.am    
   6 C6             1.2107     1.4810     0.0402 C.2     
   7 C7             4.0135    -0.8225     0.4615 C.2     
   8 C8             5.0853     0.0366     0.3314 C.2     
   9 C9             4.8449     1.3967     0.1005 C.2     
  10 C10            3.5218     1.8603     0.0063 C.2     
  11 O11            3.3077     3.0455    -0.1953 O.2     
  12 C12            5.9738     2.3370    -0.0425 C.2     
  13 O13            6.0855     3.3973     0.7995 O.3     
  14 C14            6.8846     2.1456    -0.9991 C.2     
  15 C15            4.2474    -2.2902     0.7108 C.3     
  16 N16            4.4598    -2.9767    -0.5704 N.3     
  17 C17            4.9231    -4.3540    -0.3589 C.3     
  18 C18            5.2720    -4.9889    -1.7070 C.3     
  19 C19            4.0326    -4.9799    -2.6060 C.3     
  20 C20            3.5418    -3.5388    -2.7708 C.3     
  21 C21            3.2430    -2.9460    -1.3919 C.3     
  22 C22            4.3855    -5.5492    -3.9560 C.ar    
  23 N23            5.6525    -5.6790    -4.2972 N.ar    
  24 C24            6.0087    -6.1724    -5.4672 C.ar    
  25 C25            5.0555    -6.5742    -6.3849 C.ar    
  26 C26            3.7119    -6.4525    -6.0608 C.ar    
  27 C27            3.3771    -5.9344    -4.8195 C.ar    
  28 Br28           5.5766    -7.2797    -8.0602 Br      
  29 C29            2.9719    -5.7933    -1.9897 C.1     
  30 N30            2.1533    -6.4211    -1.5140 N.1     
  31 H31           -0.8505     1.0424     0.0828 H       
  32 H32           -0.4956    -1.3812     0.4979 H       
  33 H33            1.7867    -2.2581     0.6738 H       
  34 H34            1.0450     2.5333    -0.1378 H       
  35 H35            6.0965    -0.3351     0.4069 H       
  36 H36            6.8560     3.9560     0.6283 H       
  37 H37            6.7521     1.3524    -1.7200 H       
  38 H38            7.7542     2.7839    -1.0522 H       
  39 H39            5.1280    -2.4159     1.3408 H       
  40 H40            3.3783    -2.7166     1.2118 H       
  41 H41            5.8072    -4.3460     0.2785 H       
  42 H42            4.1343    -4.9328     0.1217 H       
  43 H43            6.0703    -4.4187    -2.1820 H       
  44 H44            5.6010    -6.0163    -1.5511 H       
  45 H45            4.3129    -2.9458    -3.2626 H       
  46 H46            2.6346    -3.5302    -3.3750 H       
  47 H47            2.4621    -3.5313    -0.9064 H       
  48 H48            2.9069    -1.9153    -1.5048 H       
  49 H49            7.0567    -6.2632    -5.7115 H       
  50 H50            2.9452    -6.7578    -6.7575 H       
  51 H51            2.3413    -5.8259    -4.5335 H       
@<TRIPOS>BOND
   1    1    2 1
   2    1    6 2
   3    1   31 1
   4    2    3 2
   5    2   32 1
   6    3    4 1
   7    3   33 1
   8    4    5 1
   9    4    7 2
  10    5    6 1
  11    5   10 am
  12    6   34 1
  13    7   15 1
  14    7    8 1
  15    8    9 2
  16    8   35 1
  17    9   10 1
  18    9   12 1
  19   10   11 2
  20   12   13 1
  21   12   14 2
  22   13   36 1
  23   14   37 1
  24   14   38 1
  25   15   16 1
  26   15   39 1
  27   15   40 1
  28   16   17 1
  29   16   21 1
  30   17   18 1
  31   17   41 1
  32   17   42 1
  33   18   19 1
  34   18   43 1
  35   18   44 1
  36   19   20 1
  37   19   22 1
  38   19   29 1
  39   20   21 1
  40   20   45 1
  41   20   46 1
  42   21   47 1
  43   21   48 1
  44   22   23 ar
  45   22   27 ar
  46   23   24 ar
  47   24   25 ar
  48   24   49 1
  49   25   26 ar
  50   25   28 1
  51   26   27 ar
  52   26   50 1
  53   27   51 1
  54   29   30 3

#	End of record

