#	Name: ASD03240469
#	Creating user name:	WinNT
#	Creation time:	15. 06. 2019 20:35

#	Modifying user name:	WinNT
#	Modification time:	15. 06. 2019 20:35

#	Program:	/corina/corina34_cracker 3.40 0067  02.08.2006

@<TRIPOS>MOLECULE
ASD03240469
  47   49    0    0    0
SMALL
NO_CHARGES


@<TRIPOS>ATOM
   1 O1            -0.0164     1.3548     0.0095 O.3     
   2 C2             1.9293     3.8501    -1.6813 C.ar    
   3 C3             0.9443     3.3854    -0.8286 C.ar    
   4 C4             1.1798     2.1360    -0.0195 C.3     
   5 C5             1.7187     4.9939    -2.4247 C.ar    
   6 C6             0.5117     5.6804    -2.3150 C.ar    
   7 C7            -0.4768     5.2084    -1.4544 C.ar    
   8 C8            -0.2559     4.0636    -0.7156 C.ar    
   9 C9             0.2798     6.9116    -3.1118 C.2     
  10 C10            1.1202     7.9824    -3.2042 C.2     
  11 N11            0.5431     8.8844    -4.0234 N.pl3   
  12 N12           -0.6844     8.3645    -4.4513 N.2     
  13 C13           -0.8450     7.1839    -3.9147 C.2     
  14 C14            0.1296     0.0040     0.0417 C.ar    
  15 C15            1.5731     2.5198     1.4084 C.3     
  16 C16           -0.9858    -0.8125     0.1547 C.ar    
  17 C17           -2.0314     6.2760    -4.1125 C.3     
  18 C18           -0.8345    -2.1866     0.1868 C.ar    
  19 C19            0.4283    -2.7463     0.1063 C.ar    
  20 C20            1.5412    -1.9334    -0.0058 C.ar    
  21 C21            1.3943    -0.5604    -0.0440 C.ar    
  22 Cl22          -2.2296    -3.2100     0.3287 Cl      
  23 C23            1.9329     1.2577     2.1949 C.3     
  24 N24            2.3105     1.6261     3.5659 N.3     
  25 C25            2.6633     0.4366     4.3525 C.3     
  26 H26            2.8665     3.3195    -1.7622 H       
  27 H27            1.9824     1.5549    -0.4737 H       
  28 H28            2.4886     5.3560    -3.0899 H       
  29 H29           -1.4144     5.7369    -1.3657 H       
  30 H30           -1.0217     3.6965    -0.0484 H       
  31 H31            2.0749     8.0883    -2.7105 H       
  32 H32            0.9142     9.7452    -4.2730 H       
  33 H33            2.4334     3.1885     1.3811 H       
  34 H34            0.7366     3.0235     1.8927 H       
  35 H35           -1.9714    -0.3755     0.2178 H       
  36 H36           -1.8531     5.6265    -4.9695 H       
  37 H37           -2.1764     5.6678    -3.2196 H       
  38 H38           -2.9230     6.8771    -4.2913 H       
  39 H39            0.5450    -3.8197     0.1315 H       
  40 H40            2.5259    -2.3725    -0.0677 H       
  41 H41            2.2641     0.0737    -0.1316 H       
  42 H42            1.0726     0.5890     2.2223 H       
  43 H43            2.7694     0.7539     1.7106 H       
  44 H44            3.0649     2.2962     3.5655 H       
  45 H45            3.5049    -0.0728     3.8831 H       
  46 H46            2.9388     0.7379     5.3631 H       
  47 H47            1.8080    -0.2378     4.3948 H       
@<TRIPOS>BOND
   1    1   14 1
   2    1    4 1
   3    2    3 ar
   4    2    5 ar
   5    2   26 1
   6    3    4 1
   7    3    8 ar
   8    4   15 1
   9    4   27 1
  10    5    6 ar
  11    5   28 1
  12    6    7 ar
  13    6    9 1
  14    7    8 ar
  15    7   29 1
  16    8   30 1
  17    9   10 2
  18    9   13 1
  19   10   11 1
  20   10   31 1
  21   11   12 1
  22   11   32 1
  23   12   13 2
  24   13   17 1
  25   14   16 ar
  26   14   21 ar
  27   15   23 1
  28   15   33 1
  29   15   34 1
  30   16   18 ar
  31   16   35 1
  32   17   36 1
  33   17   37 1
  34   17   38 1
  35   18   19 ar
  36   18   22 1
  37   19   20 ar
  38   19   39 1
  39   20   21 ar
  40   20   40 1
  41   21   41 1
  42   23   24 1
  43   23   42 1
  44   23   43 1
  45   24   25 1
  46   24   44 1
  47   25   45 1
  48   25   46 1
  49   25   47 1

#	End of record

