#	Name: ASD04230125
#	Creating user name:	WinNT
#	Creation time:	15. 06. 2019 20:48

#	Modifying user name:	WinNT
#	Modification time:	15. 06. 2019 20:48

#	Program:	/corina/corina34_cracker 3.40 0067  02.08.2006

@<TRIPOS>MOLECULE
ASD04230125
  48   51    0    0    0
SMALL
NO_CHARGES


@<TRIPOS>ATOM
   1 C1             1.5360     4.6862     1.7198 C.ar    
   2 C2             2.5439     5.3840     2.3695 C.ar    
   3 C3             3.8005     4.8590     2.4681 C.ar    
   4 C4             4.0825     3.6081     1.9003 C.ar    
   5 C5             3.0564     2.8818     1.2692 C.ar    
   6 C6             1.7832     3.4397     1.1726 C.ar    
   7 C7             5.3934     3.0678     1.9619 C.2     
   8 C8             5.6628     1.9284     1.2154 C.2     
   9 C9             4.5671     1.3877     0.3904 C.2     
  10 O10            3.2979     1.6422     0.7793 O.3     
  11 C11            6.9879     1.2871     1.2463 C.2     
  12 N12            7.2188     0.1818     0.5104 N.am    
  13 O13            7.8740     1.7548     1.9357 O.2     
  14 C14            8.5059    -0.3623     0.4509 C.ar    
  15 C15            8.6753    -1.7390     0.3687 C.ar    
  16 C16            9.9457    -2.2804     0.3092 C.ar    
  17 C17           11.0532    -1.4568     0.3315 C.ar    
  18 C18           10.8928    -0.0742     0.4139 C.ar    
  19 C19            9.6134     0.4724     0.4681 C.ar    
  20 C20           12.0819     0.8122     0.4380 C.ar    
  21 O21            4.7981     0.7334    -0.6092 O.2     
  22 C22           12.1688     1.9061    -0.4236 C.ar    
  23 C23           13.3002     2.7042    -0.3626 C.ar    
  24 C24           14.2994     2.3968     0.5404 C.ar    
  25 N25           14.1945     1.3560     1.3453 N.ar    
  26 C26           13.1333     0.5687     1.3298 C.ar    
  27 O27           13.0680    -0.4899     2.1748 O.3     
  28 C28           14.1796    -0.6910     3.0500 C.3     
  29 O29            0.7869     2.7610     0.5436 O.3     
  30 C30           -0.4923     3.3951     0.4831 C.3     
  31 H31            0.5488     5.1178     1.6445 H       
  32 H32            2.3328     6.3514     2.8009 H       
  33 H33            4.5764     5.4065     2.9824 H       
  34 H34            6.1576     3.5287     2.5701 H       
  35 H35            6.4924    -0.2364     0.0222 H       
  36 H36            7.8121    -2.3878     0.3516 H       
  37 H37           10.0722    -3.3511     0.2454 H       
  38 H38           12.0443    -1.8835     0.2856 H       
  39 H39            9.4840     1.5427     0.5320 H       
  40 H40           11.3741     2.1254    -1.1212 H       
  41 H41           13.4000     3.5587    -1.0156 H       
  42 H42           15.1814     3.0184     0.5884 H       
  43 H43           15.0837    -0.8424     2.4602 H       
  44 H44           14.3037     0.1848     3.6868 H       
  45 H45           13.9994    -1.5689     3.6704 H       
  46 H46           -0.8555     3.5777     1.4944 H       
  47 H47           -0.4032     4.3429    -0.0477 H       
  48 H48           -1.1939     2.7482    -0.0437 H       
@<TRIPOS>BOND
   1    1    2 ar
   2    1    6 ar
   3    1   31 1
   4    2    3 ar
   5    2   32 1
   6    3    4 ar
   7    3   33 1
   8    4    5 ar
   9    4    7 1
  10    5    6 ar
  11    5   10 1
  12    6   29 1
  13    7    8 2
  14    7   34 1
  15    8    9 1
  16    8   11 1
  17    9   10 1
  18    9   21 2
  19   11   12 am
  20   11   13 2
  21   12   14 1
  22   12   35 1
  23   14   15 ar
  24   14   19 ar
  25   15   16 ar
  26   15   36 1
  27   16   17 ar
  28   16   37 1
  29   17   18 ar
  30   17   38 1
  31   18   19 ar
  32   18   20 1
  33   19   39 1
  34   20   22 ar
  35   20   26 ar
  36   22   23 ar
  37   22   40 1
  38   23   24 ar
  39   23   41 1
  40   24   25 ar
  41   24   42 1
  42   25   26 ar
  43   26   27 1
  44   27   28 1
  45   28   43 1
  46   28   44 1
  47   28   45 1
  48   29   30 1
  49   30   46 1
  50   30   47 1
  51   30   48 1

#	End of record

