#	Name: ASD02038396
#	Creating user name:	WinNT
#	Creation time:	15. 06. 2019 20:16

#	Modifying user name:	WinNT
#	Modification time:	15. 06. 2019 20:16

#	Program:	/corina/corina34_cracker 3.40 0067  02.08.2006

@<TRIPOS>MOLECULE
ASD02038396
  50   53    0    0    0
SMALL
NO_CHARGES


@<TRIPOS>ATOM
   1 N1            -0.0178     1.4608     0.0101 N.am    
   2 C2             0.0021    -0.0041     0.0020 C.3     
   3 C3             0.0228    -0.5218     1.4416 C.3     
   4 C4             0.0435    -2.0516     1.4332 C.3     
   5 O5             0.0628    -2.5351     2.7778 O.3     
   6 C6             0.0828    -3.8839     2.9485 C.ar    
   7 C7             0.1023    -4.4246     4.2271 C.ar    
   8 C8             1.1481     2.1155     0.0025 C.2     
   9 C9             1.2388     3.6146     0.0473 C.3     
  10 N10           -0.0566     4.2068    -0.3119 N.3     
  11 C11           -1.1335     3.5908     0.4802 C.3     
  12 C12           -1.3098     2.1408     0.0201 C.3     
  13 C13           -0.0385     5.5934    -0.1394 C.ar    
  14 C14            0.9206     6.3624    -0.7861 C.ar    
  15 C15            0.9358     7.7335    -0.6140 C.ar    
  16 C16           -0.0043     8.3403     0.2026 C.ar    
  17 C17           -0.9601     7.5759     0.8474 C.ar    
  18 C18           -0.9828     6.2056     0.6744 C.ar    
  19 Cl19           0.0173    10.0628     0.4176 Cl      
  20 C20            0.0780    -4.7259     1.8458 C.ar    
  21 C21            0.0973    -6.0944     2.0149 C.ar    
  22 C22            0.1218    -6.6422     3.2960 C.ar    
  23 C23            0.1220    -5.7910     4.3934 C.ar    
  24 N24            0.1441    -7.9741     3.7185 N.am    
  25 C25            0.1644    -8.0818     5.0577 C.2     
  26 C26            0.1516    -6.6758     5.6185 C.3     
  27 O27            0.1858    -9.1123     5.6972 O.2     
  28 Cl28           2.1341     8.6959    -1.4211 Cl      
  29 O29            2.1753     1.4723    -0.0421 O.2     
  30 H30           -0.8878    -0.3767    -0.5053 H       
  31 H31            0.8920    -0.3525    -0.5222 H       
  32 H32            0.9126    -0.1491     1.9490 H       
  33 H33           -0.8671    -0.1733     1.9659 H       
  34 H34           -0.8463    -2.4242     0.9258 H       
  35 H35            0.9334    -2.4000     0.9090 H       
  36 H36            0.1023    -3.7745     5.0895 H       
  37 H37            1.5145     3.9305     1.0535 H       
  38 H38            1.9989     3.9523    -0.6572 H       
  39 H39           -0.8683     3.6129     1.5372 H       
  40 H40           -2.0625     4.1388     0.3226 H       
  41 H41           -1.7393     2.1289    -0.9817 H       
  42 H42           -1.9808     1.6230     0.7055 H       
  43 H43            1.6538     5.8893    -1.4225 H       
  44 H44           -1.6917     8.0515     1.4838 H       
  45 H45           -1.7297     5.6097     1.1780 H       
  46 H46            0.0587    -4.3076     0.8503 H       
  47 H47            0.0931    -6.7436     1.1518 H       
  48 H48            0.1446    -8.7332     3.1147 H       
  49 H49            1.0531    -6.4892     6.2021 H       
  50 H50           -0.7384    -6.5156     6.2271 H       
@<TRIPOS>BOND
   1    1    2 1
   2    1    8 am
   3    1   12 1
   4    2    3 1
   5    2   30 1
   6    2   31 1
   7    3    4 1
   8    3   32 1
   9    3   33 1
  10    4    5 1
  11    4   34 1
  12    4   35 1
  13    5    6 1
  14    6    7 ar
  15    6   20 ar
  16    7   23 ar
  17    7   36 1
  18    8    9 1
  19    8   29 2
  20    9   10 1
  21    9   37 1
  22    9   38 1
  23   10   11 1
  24   10   13 1
  25   11   12 1
  26   11   39 1
  27   11   40 1
  28   12   41 1
  29   12   42 1
  30   13   14 ar
  31   13   18 ar
  32   14   15 ar
  33   14   43 1
  34   15   16 ar
  35   15   28 1
  36   16   17 ar
  37   16   19 1
  38   17   18 ar
  39   17   44 1
  40   18   45 1
  41   20   21 ar
  42   20   46 1
  43   21   22 ar
  44   21   47 1
  45   22   23 ar
  46   22   24 1
  47   23   26 1
  48   24   25 am
  49   24   48 1
  50   25   26 1
  51   25   27 2
  52   26   49 1
  53   26   50 1

#	End of record

