#	Name: ASD00730001
#	Creating user name:	WinNT
#	Creation time:	15. 06. 2019 18:37

#	Modifying user name:	WinNT
#	Modification time:	15. 06. 2019 18:37

#	Program:	/corina/corina34_cracker 3.40 0067  02.08.2006

@<TRIPOS>MOLECULE
ASD00730001
  46   48    0    0    0
SMALL
NO_CHARGES


@<TRIPOS>ATOM
   1 N1             0.6378     0.5368     0.9891 N.ar    
   2 C2            -0.0831    -0.5684     1.1688 C.ar    
   3 C3            -0.0300    -1.2167     2.4000 C.ar    
   4 C4             0.7801    -0.6764     3.3948 C.ar    
   5 N5             1.4699     0.4328     3.1348 N.ar    
   6 C6             1.3927     1.0166     1.9564 C.ar    
   7 N7            -0.8758    -1.0663     0.1444 N.pl3   
   8 C8            -0.4978    -2.2339    -0.5287 C.ar    
   9 C9            -1.2832    -3.3763    -0.4358 C.ar    
  10 C10           -0.9072    -4.5278    -1.1016 C.ar    
  11 C11            0.2504    -4.5437    -1.8597 C.ar    
  12 C12            1.0349    -3.4077    -1.9538 C.ar    
  13 C13            0.6607    -2.2512    -1.2957 C.ar    
  14 Cl14           1.6453    -0.8264    -1.4148 Cl      
  15 Cl15          -2.7349    -3.3577     0.5159 Cl      
  16 Cl16           0.7196    -5.9920    -2.6940 Cl      
  17 C17            2.1917     2.2699     1.7074 C.3     
  18 Cl18          -0.9504    -2.6604     2.6869 Cl      
  19 N19            0.8672    -1.2841     4.6386 N.3     
  20 C20            2.0670    -0.8382     5.3595 C.3     
  21 C21            2.3179    -1.7623     6.5528 C.3     
  22 C22           -0.3449    -1.0377     5.4310 C.3     
  23 C23           -0.5035     0.4658     5.6664 C.3     
  24 C24           -1.7232     0.7170     6.5553 C.3     
  25 C25            3.5918    -1.5326     7.3686 C.3     
  26 C26            2.2303    -1.1491     7.9518 C.3     
  27 H27           -1.6919    -0.6052    -0.1052 H       
  28 H28           -1.5172    -5.4161    -1.0298 H       
  29 H29            1.9382    -3.4234    -2.5456 H       
  30 H30            3.2020     2.0013     1.3985 H       
  31 H31            1.7147     2.8546     0.9209 H       
  32 H32            2.2364     2.8602     2.6226 H       
  33 H33            2.9260    -0.8690     4.6892 H       
  34 H34            1.9196     0.1818     5.7145 H       
  35 H35            1.9767    -2.7903     6.4312 H       
  36 H36           -1.2142    -1.4147     4.8921 H       
  37 H37           -0.2622    -1.5489     6.3901 H       
  38 H38            0.3896     0.8529     6.1571 H       
  39 H39           -0.6406     0.9708     4.7103 H       
  40 H40           -1.8361     1.7880     6.7231 H       
  41 H41           -2.6162     0.3299     6.0647 H       
  42 H42           -1.5861     0.2119     7.5115 H       
  43 H43            4.0883    -2.4095     7.7840 H       
  44 H44            4.2511    -0.7232     7.0551 H       
  45 H45            1.9939    -0.0874     8.0221 H       
  46 H46            1.8311    -1.7737     8.7510 H       
@<TRIPOS>BOND
   1    1    2 ar
   2    1    6 ar
   3    2    3 ar
   4    2    7 1
   5    3    4 ar
   6    3   18 1
   7    4    5 ar
   8    4   19 1
   9    5    6 ar
  10    6   17 1
  11    7    8 1
  12    7   27 1
  13    8    9 ar
  14    8   13 ar
  15    9   10 ar
  16    9   15 1
  17   10   11 ar
  18   10   28 1
  19   11   12 ar
  20   11   16 1
  21   12   13 ar
  22   12   29 1
  23   13   14 1
  24   17   30 1
  25   17   31 1
  26   17   32 1
  27   19   20 1
  28   19   22 1
  29   20   21 1
  30   20   33 1
  31   20   34 1
  32   21   25 1
  33   21   26 1
  34   21   35 1
  35   22   23 1
  36   22   36 1
  37   22   37 1
  38   23   24 1
  39   23   38 1
  40   23   39 1
  41   24   40 1
  42   24   41 1
  43   24   42 1
  44   25   26 1
  45   25   43 1
  46   25   44 1
  47   26   45 1
  48   26   46 1

#	End of record

