#	Name: ASD01913086
#	Creating user name:	WinNT
#	Creation time:	15. 06. 2019 20:00

#	Modifying user name:	WinNT
#	Modification time:	15. 06. 2019 20:00

#	Program:	/corina/corina34_cracker 3.40 0067  02.08.2006

@<TRIPOS>MOLECULE
ASD01913086
  35   36    0    0    0
SMALL
NO_CHARGES


@<TRIPOS>ATOM
   1 N1            -0.0169     1.3965     0.0097 N.2     
   2 N2             0.0021    -0.0041     0.0020 N.pl3   
   3 C3             1.2284     1.8226     0.0001 C.2     
   4 C4             2.0723     0.6949    -0.0140 C.2     
   5 C5             1.2908    -0.4070    -0.0125 C.2     
   6 C6             1.7726    -1.8349    -0.0240 C.3     
   7 C7             1.6661     3.2407     0.0031 C.ar    
   8 C8             0.7197     4.2632     0.0177 C.ar    
   9 C9             1.1295     5.5804     0.0204 C.ar    
  10 C10            2.4830     5.8875     0.0086 C.ar    
  11 C11            3.4282     4.8707    -0.0064 C.ar    
  12 C12            3.0246     3.5521    -0.0029 C.ar    
  13 O13            2.8837     7.1860     0.0113 O.3     
  14 C14            0.8236    -2.7001     0.8077 C.3     
  15 C15            1.8036    -2.3511    -1.4639 C.3     
  16 C16            0.1066     6.6869     0.0357 C.3     
  17 C17            4.2916     7.4304    -0.0013 C.3     
  18 H18           -0.7755    -0.5839     0.0068 H       
  19 H19            3.1521     0.7088    -0.0248 H       
  20 H20            2.7752    -1.8835     0.4011 H       
  21 H21           -0.3336     4.0248     0.0265 H       
  22 H22            4.4807     5.1127    -0.0159 H       
  23 H23            3.7603     2.7615    -0.0146 H       
  24 H24           -0.1790    -2.6514     0.3827 H       
  25 H25            1.1721    -3.7328     0.7994 H       
  26 H26            0.8016    -2.3323     1.8336 H       
  27 H27            2.1520    -3.3838    -1.4722 H       
  28 H28            0.8010    -2.3025    -1.8889 H       
  29 H29            2.4797    -1.7347    -2.0564 H       
  30 H30           -0.1303     6.9486     1.0670 H       
  31 H31            0.5085     7.5604    -0.4776 H       
  32 H32           -0.7984     6.3521    -0.4713 H       
  33 H33            4.7462     6.9818     0.8819 H       
  34 H34            4.7287     6.9909    -0.8979 H       
  35 H35            4.4738     8.5051     0.0024 H       
@<TRIPOS>BOND
   1    1    2 1
   2    1    3 2
   3    2    5 1
   4    2   18 1
   5    3    4 1
   6    3    7 1
   7    4    5 2
   8    4   19 1
   9    5    6 1
  10    6   14 1
  11    6   15 1
  12    6   20 1
  13    7    8 ar
  14    7   12 ar
  15    8    9 ar
  16    8   21 1
  17    9   10 ar
  18    9   16 1
  19   10   11 ar
  20   10   13 1
  21   11   12 ar
  22   11   22 1
  23   12   23 1
  24   13   17 1
  25   14   24 1
  26   14   25 1
  27   14   26 1
  28   15   27 1
  29   15   28 1
  30   15   29 1
  31   16   30 1
  32   16   31 1
  33   16   32 1
  34   17   33 1
  35   17   34 1
  36   17   35 1

#	End of record

