#	Name: ASD01208517
#	Creating user name:	WinNT
#	Creation time:	15. 06. 2019 19:09

#	Modifying user name:	WinNT
#	Modification time:	15. 06. 2019 19:09

#	Program:	/corina/corina34_cracker 3.40 0067  02.08.2006

@<TRIPOS>MOLECULE
ASD01208517
  15   15    0    0    0
SMALL
NO_CHARGES


@<TRIPOS>ATOM
   1 C1            -0.0168     1.3877     0.0097 C.ar    
   2 C2             0.0021    -0.0041     0.0020 C.ar    
   3 C3             1.2191    -0.6601    -0.0132 C.ar    
   4 C4             2.3824     0.1003    -0.0202 C.ar    
   5 C5             2.2897     1.4783    -0.0120 C.ar    
   6 N6             1.1140     2.0773     0.0026 N.ar    
   7 S7            -1.5590     2.2398     0.0216 S.3     
   8 C8            -1.0613     3.9842     0.0287 C.3     
   9 Br9            4.0748    -0.7431    -0.0404 Br      
  10 H10           -0.9214    -0.5640     0.0082 H       
  11 H11            1.2648    -1.7391    -0.0191 H       
  12 H12            3.1911     2.0732    -0.0170 H       
  13 H13           -1.9499     4.6155     0.0364 H       
  14 H14           -0.4633     4.1878     0.9170 H       
  15 H15           -0.4717     4.1975    -0.8629 H       
@<TRIPOS>BOND
   1    1    2 ar
   2    1    6 ar
   3    1    7 1
   4    2    3 ar
   5    2   10 1
   6    3    4 ar
   7    3   11 1
   8    4    5 ar
   9    4    9 1
  10    5    6 ar
  11    5   12 1
  12    7    8 1
  13    8   13 1
  14    8   14 1
  15    8   15 1

#	End of record

