#	Name: ASD05430149
#	Creating user name:	WinNT
#	Creation time:	15. 06. 2019 20:59

#	Modifying user name:	WinNT
#	Modification time:	15. 06. 2019 20:59

#	Program:	/corina/corina34_cracker 3.40 0067  02.08.2006

@<TRIPOS>MOLECULE
ASD05430149
  80   87    0    0    0
SMALL
NO_CHARGES


@<TRIPOS>ATOM
   1 C1             0.1655     1.1924    -0.9462 C.ar    
   2 C2             0.0213    -0.0066    -0.2952 C.ar    
   3 C3             1.0681    -0.4979     0.4861 C.ar    
   4 C4             2.2311     0.2322     0.5899 C.ar    
   5 C5             2.3758     1.4469    -0.0825 C.ar    
   6 C6             1.3306     1.9450    -0.8807 C.ar    
   7 C7             4.8886     0.0834    -0.2307 C.3     
   8 C8             4.8107     1.5668     0.0447 C.2     
   9 C9             3.6284     2.2097     0.0442 C.2     
  10 C10            6.2926    -0.3170    -0.6585 C.3     
  11 C11            7.0329     0.8035    -1.3790 C.3     
  12 N12            7.1563     1.9562    -0.4878 N.pl3   
  13 C13            6.0662     2.2894     0.3144 C.2     
  14 C14            8.2097     3.9841    -1.3055 C.ar    
  15 C15            9.2352     4.9056    -1.4024 C.ar    
  16 C16            9.0945     6.0158    -2.2180 C.ar    
  17 C17            7.9262     6.2025    -2.9364 C.ar    
  18 C18            6.8998     5.2790    -2.8386 C.ar    
  19 C19            7.0427     4.1696    -2.0224 C.ar    
  20 N20           -1.1698    -0.7332    -0.4136 N.pl3   
  21 C21           -1.7563    -1.1527    -1.5799 C.2     
  22 C22           -2.8790    -1.8121    -1.2366 C.2     
  23 N23           -2.9804    -1.7988     0.1008 N.2     
  24 C24           -1.9599    -1.1608     0.6057 C.2     
  25 C25           -3.8535    -2.4538    -2.1904 C.3     
  26 N26            6.1733     3.1752     1.2485 N.2     
  27 O27           -0.0627     3.6594    -2.0305 O.3     
  28 Si28          -0.9429     2.2518    -2.0383 Si      
  29 C29            8.3665     2.7731    -0.4224 C.3     
  30 C30            8.5724     3.2167     1.0301 C.3     
  31 O31            7.3887     3.8331     1.5266 O.3     
  32 C32            7.1079    -0.7737     0.5733 C.3     
  33 O33            6.9160    -2.2027     0.5784 O.3     
  34 C34            6.6541    -2.6229    -0.6766 C.ar    
  35 C35            6.2612    -1.5613    -1.4994 C.ar    
  36 F36           10.0970     6.9165    -2.3121 F       
  37 F37            5.7587     5.4602    -3.5389 F       
  38 C38            6.7301    -3.9174    -1.1931 C.ar    
  39 C39            6.3991    -4.0906    -2.5275 C.ar    
  40 C40            6.0082    -3.0359    -3.3268 C.ar    
  41 C41            5.9316    -1.7411    -2.8264 C.ar    
  42 C42            1.2598     3.1856    -1.7260 C.3     
  43 C43           -1.0815     1.5452    -3.7565 C.3     
  44 C44           -2.6227     2.4952    -1.2703 C.3     
  45 C45            9.5699     1.9494    -0.8852 C.3     
  46 O46           10.7503     2.7521    -0.8195 O.3     
  47 H47            0.9671    -1.4403     1.0040 H       
  48 H48            3.0414    -0.1395     1.1995 H       
  49 H49            4.6200    -0.4633     0.6732 H       
  50 H50            4.1860    -0.1710    -1.0243 H       
  51 H51            3.5986     3.2853     0.1366 H       
  52 H52            8.0261     0.4576    -1.6654 H       
  53 H53            6.4769     1.0917    -2.2711 H       
  54 H54           10.1466     4.7599    -0.8415 H       
  55 H55            7.8154     7.0682    -3.5725 H       
  56 H56            6.2420     3.4489    -1.9459 H       
  57 H57           -1.3887    -0.9858    -2.5816 H       
  58 H58           -1.7780    -0.9939     1.6571 H       
  59 H59           -3.5576    -3.4871    -2.3716 H       
  60 H60           -4.8534    -2.4330    -1.7568 H       
  61 H61           -3.8544    -1.9055    -3.1324 H       
  62 H62            8.8115     2.3476     1.6429 H       
  63 H63            9.3972     3.9277     1.0774 H       
  64 H64            8.1625    -0.5270     0.4505 H       
  65 H65            6.7105    -0.3283     1.4852 H       
  66 H66            7.0351    -4.7507    -0.5775 H       
  67 H67            6.4481    -5.0813    -2.9548 H       
  68 H68            5.7575    -3.2197    -4.3611 H       
  69 H69            5.6262    -0.9130    -3.4489 H       
  70 H70            1.7955     3.9814    -1.2084 H       
  71 H71            1.7757     2.9874    -2.6656 H       
  72 H72           -0.0850     1.3317    -4.1431 H       
  73 H73           -1.6639     0.6243    -3.7248 H       
  74 H74           -1.5768     2.2661    -4.4070 H       
  75 H75           -3.2053     3.1844    -1.8817 H       
  76 H76           -3.1380     1.5365    -1.2121 H       
  77 H77           -2.5076     2.9073    -0.2678 H       
  78 H78            9.6854     1.0798    -0.2381 H       
  79 H79            9.4113     1.6197    -1.9120 H       
  80 H80           11.5541     2.2931    -1.0992 H       
@<TRIPOS>BOND
   1    1    2 ar
   2    1    6 ar
   3    1   28 1
   4    2    3 ar
   5    2   20 1
   6    3    4 ar
   7    3   47 1
   8    4    5 ar
   9    4   48 1
  10    5    6 ar
  11    5    9 1
  12    6   42 1
  13    7    8 1
  14    7   10 1
  15    7   49 1
  16    7   50 1
  17    8    9 2
  18    8   13 1
  19    9   51 1
  20   10   11 1
  21   10   32 1
  22   10   35 1
  23   11   12 1
  24   11   52 1
  25   11   53 1
  26   12   13 1
  27   12   29 1
  28   13   26 2
  29   14   15 ar
  30   14   19 ar
  31   14   29 1
  32   15   16 ar
  33   15   54 1
  34   16   17 ar
  35   16   36 1
  36   17   18 ar
  37   17   55 1
  38   18   19 ar
  39   18   37 1
  40   19   56 1
  41   20   21 1
  42   20   24 1
  43   21   22 2
  44   21   57 1
  45   22   23 1
  46   22   25 1
  47   23   24 2
  48   24   58 1
  49   25   59 1
  50   25   60 1
  51   25   61 1
  52   26   31 1
  53   27   28 1
  54   27   42 1
  55   28   43 1
  56   28   44 1
  57   29   30 1
  58   29   45 1
  59   30   31 1
  60   30   62 1
  61   30   63 1
  62   32   33 1
  63   32   64 1
  64   32   65 1
  65   33   34 1
  66   34   35 ar
  67   34   38 ar
  68   35   41 ar
  69   38   39 ar
  70   38   66 1
  71   39   40 ar
  72   39   67 1
  73   40   41 ar
  74   40   68 1
  75   41   69 1
  76   42   70 1
  77   42   71 1
  78   43   72 1
  79   43   73 1
  80   43   74 1
  81   44   75 1
  82   44   76 1
  83   44   77 1
  84   45   46 1
  85   45   78 1
  86   45   79 1
  87   46   80 1

#	End of record

