#	Name: ASD01913464
#	Creating user name:	WinNT
#	Creation time:	15. 06. 2019 20:01

#	Modifying user name:	WinNT
#	Modification time:	15. 06. 2019 20:01

#	Program:	/corina/corina34_cracker 3.40 0067  02.08.2006

@<TRIPOS>MOLECULE
ASD01913464
  41   43    0    0    0
SMALL
NO_CHARGES


@<TRIPOS>ATOM
   1 C1             0.8971     0.0668    -1.0446 C.ar    
   2 C2             0.0312    -0.0131     0.0412 C.ar    
   3 C3             0.3744     0.6244     1.2250 C.ar    
   4 N4             1.5037     1.2970     1.3238 N.ar    
   5 C5             2.3461     1.3921     0.3136 C.ar    
   6 C6             2.0736     0.7842    -0.8974 C.ar    
   7 C7            -1.0666    -2.0567    -0.1524 C.ar    
   8 C8            -2.2365    -2.8033    -0.1691 C.ar    
   9 C9            -2.1582    -4.1831    -0.2735 C.ar    
  10 C10           -0.9068    -4.7708    -0.3580 C.ar    
  11 C11            0.2245    -3.9643    -0.3356 C.ar    
  12 N12            0.1142    -2.6485    -0.2349 N.ar    
  13 N13            1.4875    -4.5459    -0.4200 N.am    
  14 C14            2.5842    -3.7666    -0.5010 C.2     
  15 O15           -1.1344    -0.7051    -0.0561 O.3     
  16 C16            3.9116    -4.3791    -0.7187 C.ar    
  17 C17            4.0329    -5.7642    -0.8408 C.ar    
  18 C18            5.2751    -6.3295    -1.0438 C.ar    
  19 C19            6.3987    -5.5267    -1.1264 C.ar    
  20 C20            6.2854    -4.1528    -1.0062 C.ar    
  21 C21            5.0489    -3.5743    -0.8088 C.ar    
  22 O22            2.4816    -2.5600    -0.3950 O.2     
  23 C23            7.5149    -3.2862    -1.0975 C.3     
  24 C24            3.6231     2.1745     0.4818 C.3     
  25 F25            3.7382     2.5994     1.8097 F       
  26 F26            4.7143     1.3619     0.1559 F       
  27 F27            3.6022     3.2886    -0.3642 F       
  28 H28            0.6605    -0.4221    -1.9781 H       
  29 H29           -0.2907     0.5692     2.0741 H       
  30 H30            2.7693     0.8673    -1.7193 H       
  31 H31           -3.1971    -2.3145    -0.1012 H       
  32 H32           -3.0535    -4.7869    -0.2884 H       
  33 H33           -0.8115    -5.8435    -0.4399 H       
  34 H34            1.5777    -5.5117    -0.4204 H       
  35 H35            3.1566    -6.3921    -0.7761 H       
  36 H36            5.3704    -7.4012    -1.1381 H       
  37 H37            7.3687    -5.9743    -1.2851 H       
  38 H38            4.9618    -2.5019    -0.7151 H       
  39 H39            7.6808    -2.9991    -2.1359 H       
  40 H40            7.3746    -2.3914    -0.4911 H       
  41 H41            8.3787    -3.8413    -0.7316 H       
@<TRIPOS>BOND
   1    1    2 ar
   2    1    6 ar
   3    1   28 1
   4    2    3 ar
   5    2   15 1
   6    3    4 ar
   7    3   29 1
   8    4    5 ar
   9    5    6 ar
  10    5   24 1
  11    6   30 1
  12    7    8 ar
  13    7   12 ar
  14    7   15 1
  15    8    9 ar
  16    8   31 1
  17    9   10 ar
  18    9   32 1
  19   10   11 ar
  20   10   33 1
  21   11   12 ar
  22   11   13 1
  23   13   14 am
  24   13   34 1
  25   14   16 1
  26   14   22 2
  27   16   17 ar
  28   16   21 ar
  29   17   18 ar
  30   17   35 1
  31   18   19 ar
  32   18   36 1
  33   19   20 ar
  34   19   37 1
  35   20   21 ar
  36   20   23 1
  37   21   38 1
  38   23   39 1
  39   23   40 1
  40   23   41 1
  41   24   25 1
  42   24   26 1
  43   24   27 1

#	End of record

