#	Name: ASD02408092
#	Creating user name:	WinNT
#	Creation time:	15. 06. 2019 20:21

#	Modifying user name:	WinNT
#	Modification time:	15. 06. 2019 20:21

#	Program:	/corina/corina34_cracker 3.40 0067  02.08.2006

@<TRIPOS>MOLECULE
ASD02408092
  44   46    0    0    0
SMALL
NO_CHARGES


@<TRIPOS>ATOM
   1 C1            -0.4181     2.2356     0.0172 C.ar    
   2 C2            -0.6720     0.8946    -0.2010 C.ar    
   3 C3             1.0001     2.7453     0.0075 C.3     
   4 C4             1.5292     2.7850     1.4180 C.2     
   5 N5             2.7885     3.2142     1.6292 N.am    
   6 N6             0.7501     2.4075     2.3950 N.2     
   7 C7             1.1662     2.4222     3.6678 C.2     
   8 C8             2.4708     2.8536     3.9593 C.2     
   9 C9             3.2945     3.2633     2.8795 C.2     
  10 N10            0.3263     2.0202     4.6772 N.pl3   
  11 C11            0.2937     2.7425     5.9563 C.3     
  12 O12            4.4348     3.6467     3.0758 O.2     
  13 C13           -1.9731     0.4271    -0.1921 C.ar    
  14 C14           -3.0198     1.3005     0.0354 C.ar    
  15 C15           -2.7657     2.6418     0.2545 C.ar    
  16 C16           -1.4656     3.1104     0.2386 C.ar    
  17 C17           -1.1886     4.5724     0.4774 C.3     
  18 C18           -1.1535     3.1425     6.2599 C.3     
  19 C19           -2.0421     1.8972     6.2186 C.3     
  20 C20           -1.9949     1.2810     4.8185 C.3     
  21 C21           -0.5613     0.8633     4.4965 C.3     
  22 C22            2.9533     2.8840     5.3073 C.1     
  23 N23            3.3360     2.9081     6.3766 N.1     
  24 C24           -1.5573     0.9159     7.2029 C.1     
  25 N25           -1.1831     0.1586     7.9625 N.1     
  26 H26            0.1459     0.2121    -0.3787 H       
  27 H27            1.6206     2.0816    -0.5947 H       
  28 H28            1.0226     3.7488    -0.4174 H       
  29 H29            3.3357     3.4898     0.8772 H       
  30 H30            0.6686     2.0967     6.7503 H       
  31 H31            0.9131     3.6368     5.8867 H       
  32 H32           -2.1715    -0.6207    -0.3632 H       
  33 H33           -4.0362     0.9354     0.0416 H       
  34 H34           -3.5837     3.3244     0.4319 H       
  35 H35           -1.0448     4.7455     1.5439 H       
  36 H36           -0.2881     4.8646    -0.0628 H       
  37 H37           -2.0327     5.1646     0.1237 H       
  38 H38           -1.2059     3.5941     7.2506 H       
  39 H39           -1.4970     3.8594     5.5142 H       
  40 H40           -3.0684     2.1752     6.4586 H       
  41 H41           -2.6462     0.4077     4.7833 H       
  42 H42           -2.3305     2.0154     4.0863 H       
  43 H43           -0.5049     0.5156     3.4650 H       
  44 H44           -0.2532     0.0643     5.1709 H       
@<TRIPOS>BOND
   1    1    2 ar
   2    1    3 1
   3    1   16 ar
   4    2   13 ar
   5    2   26 1
   6    3    4 1
   7    3   27 1
   8    3   28 1
   9    4    5 1
  10    4    6 2
  11    5    9 am
  12    5   29 1
  13    6    7 1
  14    7    8 2
  15    7   10 1
  16    8    9 1
  17    8   22 1
  18    9   12 2
  19   10   11 1
  20   10   21 1
  21   11   18 1
  22   11   30 1
  23   11   31 1
  24   13   14 ar
  25   13   32 1
  26   14   15 ar
  27   14   33 1
  28   15   16 ar
  29   15   34 1
  30   16   17 1
  31   17   35 1
  32   17   36 1
  33   17   37 1
  34   18   19 1
  35   18   38 1
  36   18   39 1
  37   19   20 1
  38   19   24 1
  39   19   40 1
  40   20   21 1
  41   20   41 1
  42   20   42 1
  43   21   43 1
  44   21   44 1
  45   22   23 3
  46   24   25 3

#	End of record

