#	Name: ASD09740544
#	Creating user name:	WinNT
#	Creation time:	15. 06. 2019 21:23

#	Modifying user name:	WinNT
#	Modification time:	15. 06. 2019 21:23

#	Program:	/corina/corina34_cracker 3.40 0067  02.08.2006

@<TRIPOS>MOLECULE
ASD09740544
  66   70    0    0    0
SMALL
NO_CHARGES


@<TRIPOS>ATOM
   1 N1            -0.3505     1.3786    -0.0692 N.2     
   2 C2            -0.2981     0.0699    -0.0580 C.2     
   3 C3             0.7841     2.0200    -0.0978 C.2     
   4 S4             2.1077     0.8577    -0.1133 S.3     
   5 C5             0.9426    -0.4643    -0.0777 C.2     
   6 C6             0.9358     3.4896    -0.1154 C.ar    
   7 C7            -0.1922     4.3064    -0.1008 C.ar    
   8 C8             2.2118     4.0604    -0.1407 C.ar    
   9 C9             2.3592     5.4307    -0.1567 C.ar    
  10 C10            1.2424     6.2539    -0.1472 C.ar    
  11 C11           -0.0431     5.6922    -0.1170 C.ar    
  12 O12            1.3933     7.6020    -0.1622 O.3     
  13 C13            2.7269     8.1066    -0.0670 C.3     
  14 C14            3.3605     8.1393    -1.4592 C.3     
  15 C15            2.6964     9.5222     0.5128 C.3     
  16 C16           -1.1975     6.5394    -0.1077 C.1     
  17 N17           -2.1133     7.2115    -0.1003 N.1     
  18 C18            1.2665    -1.9063    -0.0707 C.ar    
  19 C19            2.1598    -2.4276    -1.0111 C.ar    
  20 C20            2.4579    -3.7747    -0.9992 C.ar    
  21 C21            1.8718    -4.6045    -0.0562 C.ar    
  22 C22            0.9874    -4.0939     0.8759 C.ar    
  23 C23            0.6855    -2.7481     0.8782 C.ar    
  24 C24            2.9204    -1.7433    -2.1264 C.3     
  25 C25            4.0425    -2.7298    -2.5140 C.3     
  26 C26            3.4404    -4.0913    -2.1067 C.3     
  27 N27            4.4915    -4.9849    -1.6137 N.am    
  28 C28            4.3257    -6.3208    -1.6790 C.2     
  29 N29            5.3320    -7.1430    -1.3214 N.am    
  30 O30            3.2683    -6.7842    -2.0604 O.2     
  31 C31            6.5748    -6.6023    -0.7542 C.3     
  32 C32            7.7597    -7.1323    -1.5679 C.3     
  33 C33            7.7011    -8.6610    -1.6105 C.3     
  34 C34            6.4070    -9.1046    -2.2965 C.3     
  35 C35            5.2046    -8.5975    -1.4859 C.3     
  36 O36            6.3675   -10.5315    -2.3633 O.3     
  37 H37           -1.1879    -0.5417    -0.0342 H       
  38 H38           -1.1789     3.8677    -0.0775 H       
  39 H39            3.0853     3.4253    -0.1475 H       
  40 H40            3.3477     5.8652    -0.1762 H       
  41 H41            3.3145     7.4598     0.5845 H       
  42 H42            4.3777     8.5241    -1.3866 H       
  43 H43            3.3822     7.1308    -1.8723 H       
  44 H44            2.7729     8.7861    -2.1107 H       
  45 H45            2.2450     9.4989     1.5047 H       
  46 H46            3.7136     9.9071     0.5854 H       
  47 H47            2.1088    10.1691    -0.1387 H       
  48 H48            2.1075    -5.6585    -0.0497 H       
  49 H49            0.5357    -4.7491     1.6061 H       
  50 H50           -0.0050    -2.3488     1.6063 H       
  51 H51            2.2636    -1.5640    -2.9777 H       
  52 H52            3.3473    -0.8048    -1.7728 H       
  53 H53            4.2347    -2.6962    -3.5864 H       
  54 H54            4.9518    -2.5236    -1.9495 H       
  55 H55            2.9236    -4.5446    -2.9526 H       
  56 H56            5.3068    -4.6150    -1.2403 H       
  57 H57            6.5556    -5.5136    -0.8033 H       
  58 H58            6.6721    -6.9217     0.2834 H       
  59 H59            7.7095    -6.7379    -2.5828 H       
  60 H60            8.6923    -6.8168    -1.1002 H       
  61 H61            8.5567    -9.0418    -2.1682 H       
  62 H62            7.7264    -9.0538    -0.5941 H       
  63 H63            6.3695    -8.6916    -3.3045 H       
  64 H64            5.1922    -9.0813    -0.5092 H       
  65 H65            4.2820    -8.8242    -2.0201 H       
  66 H66            5.5729   -10.8836    -2.7871 H       
@<TRIPOS>BOND
   1    1    2 1
   2    1    3 2
   3    2    5 2
   4    2   37 1
   5    3    4 1
   6    3    6 1
   7    4    5 1
   8    5   18 1
   9    6    7 ar
  10    6    8 ar
  11    7   11 ar
  12    7   38 1
  13    8    9 ar
  14    8   39 1
  15    9   10 ar
  16    9   40 1
  17   10   11 ar
  18   10   12 1
  19   11   16 1
  20   12   13 1
  21   13   14 1
  22   13   15 1
  23   13   41 1
  24   14   42 1
  25   14   43 1
  26   14   44 1
  27   15   45 1
  28   15   46 1
  29   15   47 1
  30   16   17 3
  31   18   19 ar
  32   18   23 ar
  33   19   20 ar
  34   19   24 1
  35   20   21 ar
  36   20   26 1
  37   21   22 ar
  38   21   48 1
  39   22   23 ar
  40   22   49 1
  41   23   50 1
  42   24   25 1
  43   24   51 1
  44   24   52 1
  45   25   26 1
  46   25   53 1
  47   25   54 1
  48   26   27 1
  49   26   55 1
  50   27   28 am
  51   27   56 1
  52   28   29 am
  53   28   30 2
  54   29   31 1
  55   29   35 1
  56   31   32 1
  57   31   57 1
  58   31   58 1
  59   32   33 1
  60   32   59 1
  61   32   60 1
  62   33   34 1
  63   33   61 1
  64   33   62 1
  65   34   35 1
  66   34   36 1
  67   34   63 1
  68   35   64 1
  69   35   65 1
  70   36   66 1

#	End of record

