#	Name: ASD01882583
#	Creating user name:	WinNT
#	Creation time:	15. 06. 2019 19:44

#	Modifying user name:	WinNT
#	Modification time:	15. 06. 2019 19:44

#	Program:	/corina/corina34_cracker 3.40 0067  02.08.2006

@<TRIPOS>MOLECULE
ASD01882583
  47   51    0    0    0
SMALL
NO_CHARGES


@<TRIPOS>ATOM
   1 C1            -0.0159     1.3220     0.0093 C.2     
   2 N2             0.0021    -0.0041     0.0020 N.2     
   3 C3             1.1523    -0.6857    -0.0126 C.2     
   4 C4             2.3835     0.0173    -0.0206 C.2     
   5 C5             2.3523     1.3664    -0.0131 C.2     
   6 N6             1.1484     2.0132     0.0019 N.pl3   
   7 O7            -1.0993     2.1290     0.0184 O.3     
   8 C8             0.8540     3.4562     0.0125 C.3     
   9 C9            -0.6831     3.5211     0.0242 C.3     
  10 O10            1.1423    -1.9071    -0.0187 O.2     
  11 C11           -1.1944     4.2379    -1.2270 C.3     
  12 O12           -2.6209     4.3119    -1.1842 O.3     
  13 C13           -6.7567     5.4865    -3.7328 C.3     
  14 C14           -5.3018     5.4047    -3.3653 C.2     
  15 C15           -4.7076     5.0185    -2.2196 C.2     
  16 C16           -3.2387     4.9234    -2.2290 C.2     
  17 C17           -2.4907     5.4087    -3.2120 C.2     
  18 C18           -3.0361     6.1514    -4.4013 C.3     
  19 C19           -4.5162     5.8556    -4.5337 C.2     
  20 C20           -5.2699     5.9466    -5.6020 C.2     
  21 C21           -4.8831     6.2164    -7.0427 C.3     
  22 C22           -5.4640     5.0437    -7.8534 C.3     
  23 C23           -6.9456     4.8503    -7.5480 C.3     
  24 C24           -7.1880     4.5167    -6.0697 C.3     
  25 C25           -6.7320     5.7147    -5.2428 C.3     
  26 H26            3.3237    -0.5140    -0.0321 H       
  27 H27            3.2727     1.9314    -0.0185 H       
  28 H28            1.2651     3.9237     0.9072 H       
  29 H29            1.2480     3.9334    -0.8848 H       
  30 H30           -1.0396     4.0220     0.9243 H       
  31 H31           -0.7793     5.2451    -1.2639 H       
  32 H32           -0.8857     3.6850    -2.1142 H       
  33 H33           -7.2658     4.5527    -3.4941 H       
  34 H34           -7.2339     6.3252    -3.2258 H       
  35 H35           -5.2827     4.7888    -1.3348 H       
  36 H36           -1.4223     5.2613    -3.1544 H       
  37 H37           -2.8895     7.2224    -4.2608 H       
  38 H38           -2.5174     5.8265    -5.3032 H       
  39 H39           -5.3166     7.1583    -7.3791 H       
  40 H40           -3.7980     6.2426    -7.1428 H       
  41 H41           -5.3413     5.2481    -8.9170 H       
  42 H42           -4.9241     4.1312    -7.6004 H       
  43 H43           -7.4815     5.7662    -7.7973 H       
  44 H44           -7.3312     4.0371    -8.1629 H       
  45 H45           -8.2493     4.3340    -5.9013 H       
  46 H46           -6.6117     3.6345    -5.7908 H       
  47 H47           -7.3211     6.5964    -5.4949 H       
@<TRIPOS>BOND
   1    1    2 2
   2    1    6 1
   3    1    7 1
   4    2    3 1
   5    3    4 1
   6    3   10 2
   7    4    5 2
   8    4   26 1
   9    5    6 1
  10    5   27 1
  11    6    8 1
  12    7    9 1
  13    8    9 1
  14    8   28 1
  15    8   29 1
  16    9   11 1
  17    9   30 1
  18   11   12 1
  19   11   31 1
  20   11   32 1
  21   12   16 1
  22   13   14 1
  23   13   25 1
  24   13   33 1
  25   13   34 1
  26   14   15 2
  27   14   19 1
  28   15   16 1
  29   15   35 1
  30   16   17 2
  31   17   18 1
  32   17   36 1
  33   18   19 1
  34   18   37 1
  35   18   38 1
  36   19   20 2
  37   20   21 1
  38   20   25 1
  39   21   22 1
  40   21   39 1
  41   21   40 1
  42   22   23 1
  43   22   41 1
  44   22   42 1
  45   23   24 1
  46   23   43 1
  47   23   44 1
  48   24   25 1
  49   24   45 1
  50   24   46 1
  51   25   47 1

#	End of record

