#	Name: ASD01915917
#	Creating user name:	WinNT
#	Creation time:	15. 06. 2019 20:06

#	Modifying user name:	WinNT
#	Modification time:	15. 06. 2019 20:06

#	Program:	/corina/corina34_cracker 3.40 0067  02.08.2006

@<TRIPOS>MOLECULE
ASD01915917
  40   43    0    0    0
SMALL
NO_CHARGES


@<TRIPOS>ATOM
   1 C1            -0.0167     1.3778     0.0096 C.2     
   2 C2             0.0021    -0.0041     0.0020 C.2     
   3 C3            -1.3061    -0.7781    -0.0014 C.3     
   4 C4            -2.3692     0.0496     0.7181 C.3     
   5 N5            -2.4010     1.4359     0.2673 N.am    
   6 C6            -1.2676     2.1378     0.0349 C.2     
   7 O7            -1.2872     3.3419    -0.1440 O.2     
   8 S8             1.6346     1.9576    -0.0030 S.3     
   9 C9             2.2093     0.3463    -0.0096 C.2     
  10 N10            1.2158    -0.4933    -0.0052 N.2     
  11 C11            4.4732     1.0547    -0.0212 C.3     
  12 C12            5.8643     0.4753    -0.0308 C.ar    
  13 C13            6.4948     0.2125    -1.2319 C.ar    
  14 C14            6.5115     0.2121     1.1624 C.ar    
  15 C15            7.7876    -0.3190     1.1552 C.ar    
  16 C16            8.4182    -0.5875    -0.0450 C.ar    
  17 C17            7.7733    -0.3195    -1.2403 C.ar    
  18 O18            3.5154    -0.0058    -0.0181 O.3     
  19 C19           -4.2508     2.7392     1.1124 C.ar    
  20 C20           -3.6399     2.0587     0.0688 C.ar    
  21 F21            8.3885    -0.5821    -2.4141 F       
  22 C22           -5.4728     3.3534     0.9146 C.ar    
  23 C23           -6.0888     3.2905    -0.3235 C.ar    
  24 C24           -5.4820     2.6126    -1.3678 C.ar    
  25 C25           -4.2595     1.9965    -1.1750 C.ar    
  26 F26           -3.6672     1.3352    -2.1933 F       
  27 F27           -7.2839     3.8913    -0.5135 F       
  28 H28           -1.6194    -0.9615    -1.0292 H       
  29 H29           -1.1701    -1.7277     0.5162 H       
  30 H30           -3.3459    -0.4008     0.5409 H       
  31 H31           -2.1645     0.0319     1.7886 H       
  32 H32            4.3406     1.6667     0.8710 H       
  33 H33            4.3302     1.6709    -0.9089 H       
  34 H34            5.9905     0.4217    -2.1638 H       
  35 H35            6.0197     0.4220     2.1008 H       
  36 H36            8.2923    -0.5238     2.0878 H       
  37 H37            9.4155    -1.0021    -0.0504 H       
  38 H38           -3.7735     2.7851     2.0801 H       
  39 H39           -5.9480     3.8830     1.7271 H       
  40 H40           -5.9644     2.5648    -2.3329 H       
@<TRIPOS>BOND
   1    1    2 2
   2    1    8 1
   3    1    6 1
   4    2    3 1
   5    2   10 1
   6    3    4 1
   7    3   28 1
   8    3   29 1
   9    4    5 1
  10    4   30 1
  11    4   31 1
  12    5    6 am
  13    5   20 1
  14    6    7 2
  15    8    9 1
  16    9   10 2
  17    9   18 1
  18   11   12 1
  19   11   18 1
  20   11   32 1
  21   11   33 1
  22   12   13 ar
  23   12   14 ar
  24   13   17 ar
  25   13   34 1
  26   14   15 ar
  27   14   35 1
  28   15   16 ar
  29   15   36 1
  30   16   17 ar
  31   16   37 1
  32   17   21 1
  33   19   22 ar
  34   19   20 ar
  35   19   38 1
  36   20   25 ar
  37   22   23 ar
  38   22   39 1
  39   23   24 ar
  40   23   27 1
  41   24   25 ar
  42   24   40 1
  43   25   26 1

#	End of record

