#	Name: ASD01882980
#	Creating user name:	WinNT
#	Creation time:	15. 06. 2019 19:45

#	Modifying user name:	WinNT
#	Modification time:	15. 06. 2019 19:45

#	Program:	/corina/corina34_cracker 3.40 0067  02.08.2006

@<TRIPOS>MOLECULE
ASD01882980
  34   36    0    0    0
SMALL
NO_CHARGES


@<TRIPOS>ATOM
   1 C1            -0.0173     1.4048     0.0143 C.2     
   2 C2             0.0012    -0.0060     0.0272 C.2     
   3 C3            -1.2294    -0.6991     0.0473 C.2     
   4 C4            -2.3903    -0.0099     0.0539 C.2     
   5 N5            -2.4069     1.3517     0.0415 N.am    
   6 C6            -1.2672     2.0671     0.0276 C.2     
   7 C7            -3.6254     2.0159     0.0489 C.2     
   8 C8            -4.7642     1.3236    -0.0443 C.2     
   9 C9             1.2046     2.1512    -0.0057 C.1     
  10 N10            2.1739     2.7433    -0.0216 N.1     
  11 O11           -1.3119     3.2856     0.0174 O.2     
  12 C12           -6.0610     2.0158     0.0830 C.ar    
  13 C13            1.2737    -0.7386     0.0193 C.2     
  14 C14            1.7376    -1.5324     1.0301 C.2     
  15 C15            2.9615    -2.0996     0.7579 C.2     
  16 C16            3.4815    -1.7821    -0.4326 C.2     
  17 S17            2.4411    -0.7411    -1.2955 S.3     
  18 C18           -7.2534     1.2952    -0.0139 C.ar    
  19 C19           -8.4622     1.9489     0.1061 C.ar    
  20 C20           -8.4950     3.3153     0.3215 C.ar    
  21 C21           -7.3175     4.0355     0.4186 C.ar    
  22 C22           -6.1016     3.3938     0.3068 C.ar    
  23 H23           -1.2417    -1.7790     0.0571 H       
  24 H24           -3.3256    -0.5498     0.0690 H       
  25 H25           -3.6530     3.0925     0.1301 H       
  26 H26           -4.7356     0.2572    -0.2129 H       
  27 H27            1.1978    -1.6978     1.9508 H       
  28 H28            3.4654    -2.7530     1.4548 H       
  29 H29            4.4317    -2.1403    -0.8005 H       
  30 H30           -7.2292     0.2288    -0.1828 H       
  31 H31           -9.3850     1.3929     0.0313 H       
  32 H32           -9.4442     3.8221     0.4140 H       
  33 H33           -7.3505     5.1019     0.5865 H       
  34 H34           -5.1833     3.9571     0.3832 H       
@<TRIPOS>BOND
   1    1    2 2
   2    1    9 1
   3    1    6 1
   4    2    3 1
   5    2   13 1
   6    3    4 2
   7    3   23 1
   8    4    5 1
   9    4   24 1
  10    5    7 1
  11    5    6 am
  12    6   11 2
  13    7    8 2
  14    7   25 1
  15    8   12 1
  16    8   26 1
  17    9   10 3
  18   12   18 ar
  19   12   22 ar
  20   13   14 2
  21   13   17 1
  22   14   15 1
  23   14   27 1
  24   15   16 2
  25   15   28 1
  26   16   17 1
  27   16   29 1
  28   18   19 ar
  29   18   30 1
  30   19   20 ar
  31   19   31 1
  32   20   21 ar
  33   20   32 1
  34   21   22 ar
  35   21   33 1
  36   22   34 1

#	End of record

