#	Name: ASD01901585
#	Creating user name:	WinNT
#	Creation time:	15. 06. 2019 19:54

#	Modifying user name:	WinNT
#	Modification time:	15. 06. 2019 19:54

#	Program:	/corina/corina34_cracker 3.40 0067  02.08.2006

@<TRIPOS>MOLECULE
ASD01901585
  56   60    0    0    0
SMALL
NO_CHARGES


@<TRIPOS>ATOM
   1 C1             0.1392     0.8830    -0.6889 C.3     
   2 C2             0.1215    -0.5251    -0.0907 C.3     
   3 C3             0.8585    -1.4205    -1.0561 C.3     
   4 C4             2.1829    -1.8955    -0.5590 C.2     
   5 O5             2.8463    -2.6098    -1.2798 O.2     
   6 N6             2.6752    -1.5719     0.6426 N.am    
   7 C7             1.9560    -0.8534     1.5162 C.2     
   8 O8             2.4365    -0.5901     2.6011 O.2     
   9 N9             0.7152    -0.4282     1.2318 N.am    
  10 C10           -0.1010     0.1724     2.3058 C.3     
  11 C11           -1.3652    -0.6721     2.4731 C.3     
  12 N12           -1.9780    -0.9502     1.1811 N.am    
  13 C13           -1.3209    -0.9301     0.0184 C.2     
  14 O14           -1.9128    -1.2518    -0.9900 O.2     
  15 C15           -3.3389    -1.2578     1.1567 C.ar    
  16 C16           -3.7773    -2.5733     1.2993 C.ar    
  17 C17           -5.1313    -2.8356     1.2700 C.ar    
  18 N18           -6.0059    -1.8605     1.1097 N.ar    
  19 C19           -5.6306    -0.6029     0.9714 C.ar    
  20 C20           -4.2954    -0.2568     0.9949 C.ar    
  21 C21            3.9661    -1.9926     0.9942 C.ar    
  22 C22            4.1487    -3.2196     1.6239 C.ar    
  23 F23            3.0827    -4.0040     1.8951 F       
  24 C24            5.4174    -3.6367     1.9713 C.ar    
  25 C25            6.5198    -2.8246     1.6898 C.ar    
  26 C26            6.3325    -1.5923     1.0571 C.ar    
  27 C27            5.0615    -1.1843     0.7075 C.ar    
  28 F28            4.8801     0.0041     0.0910 F       
  29 C29            7.8378    -3.2539     2.0493 C.1     
  30 C30            8.9183    -3.6058     2.3440 C.1     
  31 C31           10.2364    -4.0351     2.7034 C.ar    
  32 C32           10.4261    -5.2691     3.3312 C.ar    
  33 C33           11.6985    -5.6760     3.6741 C.ar    
  34 C34           12.7857    -4.8658     3.3978 C.ar    
  35 C35           12.6056    -3.6425     2.7764 C.ar    
  36 C36           11.3397    -3.2246     2.4229 C.ar    
  37 H37            1.1678     1.2381    -0.7521 H       
  38 H38           -0.2990     0.8594    -1.6866 H       
  39 H39           -0.4387     1.5547    -0.0541 H       
  40 H40            0.2355    -2.2896    -1.2675 H       
  41 H41            1.0130    -0.8744    -1.9867 H       
  42 H42            0.4639     0.1776     3.2380 H       
  43 H43           -0.3732     1.1923     2.0342 H       
  44 H44           -1.1058    -1.6138     2.9570 H       
  45 H45           -2.0765    -0.1327     3.0986 H       
  46 H46           -3.0668    -3.3761     1.4304 H       
  47 H47           -5.4800    -3.8519     1.3794 H       
  48 H48           -6.3784     0.1655     0.8424 H       
  49 H49           -3.9952     0.7748     0.8853 H       
  50 H50            5.5584    -4.5893     2.4604 H       
  51 H51            7.1820    -0.9622     0.8385 H       
  52 H52            9.5784    -5.9023     3.5478 H       
  53 H53           11.8466    -6.6293     4.1596 H       
  54 H54           13.7798    -5.1895     3.6689 H       
  55 H55           13.4588    -3.0154     2.5639 H       
  56 H56           11.2010    -2.2717     1.9339 H       
@<TRIPOS>BOND
   1    1    2 1
   2    1   37 1
   3    1   38 1
   4    1   39 1
   5    2    9 1
   6    2   13 1
   7    2    3 1
   8    3    4 1
   9    3   40 1
  10    3   41 1
  11    4    5 2
  12    4    6 am
  13    6    7 am
  14    6   21 1
  15    7    8 2
  16    7    9 am
  17    9   10 1
  18   10   11 1
  19   10   42 1
  20   10   43 1
  21   11   12 1
  22   11   44 1
  23   11   45 1
  24   12   13 am
  25   12   15 1
  26   13   14 2
  27   15   20 ar
  28   15   16 ar
  29   16   17 ar
  30   16   46 1
  31   17   18 ar
  32   17   47 1
  33   18   19 ar
  34   19   20 ar
  35   19   48 1
  36   20   49 1
  37   21   27 ar
  38   21   22 ar
  39   22   23 1
  40   22   24 ar
  41   24   25 ar
  42   24   50 1
  43   25   26 ar
  44   25   29 1
  45   26   27 ar
  46   26   51 1
  47   27   28 1
  48   29   30 3
  49   30   31 1
  50   31   36 ar
  51   31   32 ar
  52   32   33 ar
  53   32   52 1
  54   33   34 ar
  55   33   53 1
  56   34   35 ar
  57   34   54 1
  58   35   36 ar
  59   35   55 1
  60   36   56 1

#	End of record

