#	Name: ASD08170692
#	Creating user name:	WinNT
#	Creation time:	15. 06. 2019 21:17

#	Modifying user name:	WinNT
#	Modification time:	15. 06. 2019 21:17

#	Program:	/corina/corina34_cracker 3.40 0067  02.08.2006

@<TRIPOS>MOLECULE
ASD08170692
  83   86    0    0    0
SMALL
NO_CHARGES


@<TRIPOS>ATOM
   1 N1            -0.0159     1.3150     0.0224 N.ar    
   2 C2             0.0017    -0.0034     0.0124 C.ar    
   3 C3            -1.2931    -0.7743     0.0243 C.3     
   4 C4            -4.2984    -0.6746     2.4294 C.3     
   5 C5            -5.5932    -1.4455     2.4412 C.2     
   6 N6            -5.8033    -2.5767     3.0361 N.2     
   7 N7            -6.9625    -3.0651     2.9277 N.2     
   8 C8            -7.8359    -2.3975     2.2358 C.2     
   9 S9            -7.0970    -0.9657     1.6538 S.3     
  10 N10           -9.1540    -2.7791     2.0098 N.am    
  11 C11           -3.4530    -1.1158     1.2328 C.3     
  12 C12           -2.1384    -0.3331     1.2208 C.3     
  13 C13            1.2122    -0.6808    -0.0095 C.ar    
  14 C14            2.3785     0.0690    -0.0202 C.ar    
  15 C15            2.2616     1.4575    -0.0083 C.ar    
  16 N16            1.0600     2.0148     0.0126 N.ar    
  17 N17            3.4043     2.2567    -0.0179 N.am    
  18 C18            3.2889     3.5963    -0.1113 C.2     
  19 O19            2.1992     4.1007    -0.2812 O.2     
  20 C20            4.5141     4.4673    -0.0047 C.3     
  21 C21            4.1152     5.9141    -0.1410 C.ar    
  22 C22            3.7798     6.6471     0.9817 C.ar    
  23 C23            3.4138     7.9745     0.8567 C.ar    
  24 C24            3.3838     8.5686    -0.3909 C.ar    
  25 C25            3.7202     7.8356    -1.5138 C.ar    
  26 C26            4.0903     6.5098    -1.3884 C.ar    
  27 C27           -9.6205    -3.9317     2.5297 C.2     
  28 O28           -8.8908    -4.6361     3.1947 O.2     
  29 C29          -11.0488    -4.3451     2.2847 C.3     
  30 C30          -11.3154    -5.6609     2.9693 C.ar    
  31 C31          -11.7761    -5.6812     4.2724 C.ar    
  32 C32          -12.0205    -6.8882     4.9004 C.ar    
  33 C33          -11.8047    -8.0749     4.2251 C.ar    
  34 C34          -11.3448    -8.0546     2.9216 C.ar    
  35 C35          -11.1045    -6.8475     2.2922 C.ar    
  36 C36            3.0471     8.7735     2.0808 C.3     
  37 N37            3.6020    10.1245     1.9664 N.am    
  38 C38            1.5238     8.8561     2.1984 C.3     
  39 C39            3.8561    10.8448     3.0768 C.2     
  40 C40            4.4270    12.2345     2.9592 C.3     
  41 C41            4.6188    12.8271     4.3567 C.3     
  42 C42            5.6747    12.0185     5.1130 C.3     
  43 C43            5.0800    14.2809     4.2353 C.3     
  44 O44            3.6254    10.3746     4.1707 O.2     
  45 H45           -1.8401    -0.5802    -0.8983 H       
  46 H46           -1.0805    -1.8405     0.1031 H       
  47 H47           -4.5110     0.3916     2.3505 H       
  48 H48           -3.7514    -0.8687     3.3520 H       
  49 H49           -9.7376    -2.2157     1.4779 H       
  50 H50           -3.2404    -2.1820     1.3116 H       
  51 H51           -4.0000    -0.9216     0.3102 H       
  52 H52           -1.5915    -0.5273     2.1434 H       
  53 H53           -2.3511     0.7331     1.1420 H       
  54 H54            1.2451    -1.7603    -0.0176 H       
  55 H55            3.3472    -0.4082    -0.0369 H       
  56 H56            4.2821     1.8485     0.0427 H       
  57 H57            4.9880     4.3107     0.9643 H       
  58 H58            5.2148     4.2073    -0.7981 H       
  59 H59            3.8032     6.1829     1.9566 H       
  60 H60            3.0972     9.6053    -0.4886 H       
  61 H61            3.6965     8.2997    -2.4887 H       
  62 H62            4.3531     5.9372    -2.2656 H       
  63 H63          -11.7206    -3.5852     2.6839 H       
  64 H64          -11.2174    -4.4524     1.2132 H       
  65 H65          -11.9447    -4.7541     4.8001 H       
  66 H66          -12.3798    -6.9040     5.9188 H       
  67 H67          -11.9950    -9.0179     4.7160 H       
  68 H68          -11.1759    -8.9817     2.3941 H       
  69 H69          -10.7452    -6.8317     1.2738 H       
  70 H70            3.4541     8.2873     2.9674 H       
  71 H71            3.7866    10.5005     1.0915 H       
  72 H72            1.1109     7.8509     2.2834 H       
  73 H73            1.2586     9.4340     3.0837 H       
  74 H74            1.1168     9.3423     1.3118 H       
  75 H75            5.3888    12.1902     2.4482 H       
  76 H76            3.7415    12.8619     2.3894 H       
  77 H77            3.6745    12.7897     4.8999 H       
  78 H78            5.8113    12.4406     6.1086 H       
  79 H79            5.3460    10.9828     5.1995 H       
  80 H80            6.6189    12.0559     4.5698 H       
  81 H81            4.3278    14.8570     3.6965 H       
  82 H82            5.2166    14.7030     5.2309 H       
  83 H83            6.0243    14.3183     3.6921 H       
@<TRIPOS>BOND
   1    1    2 ar
   2    1   16 ar
   3    2    3 1
   4    2   13 ar
   5    3   12 1
   6    3   45 1
   7    3   46 1
   8    4    5 1
   9    4   11 1
  10    4   47 1
  11    4   48 1
  12    5    6 2
  13    5    9 1
  14    6    7 1
  15    7    8 2
  16    8    9 1
  17    8   10 1
  18   10   27 am
  19   10   49 1
  20   11   12 1
  21   11   50 1
  22   11   51 1
  23   12   52 1
  24   12   53 1
  25   13   14 ar
  26   13   54 1
  27   14   15 ar
  28   14   55 1
  29   15   16 ar
  30   15   17 1
  31   17   18 am
  32   17   56 1
  33   18   19 2
  34   18   20 1
  35   20   21 1
  36   20   57 1
  37   20   58 1
  38   21   22 ar
  39   21   26 ar
  40   22   23 ar
  41   22   59 1
  42   23   24 ar
  43   23   36 1
  44   24   25 ar
  45   24   60 1
  46   25   26 ar
  47   25   61 1
  48   26   62 1
  49   27   28 2
  50   27   29 1
  51   29   30 1
  52   29   63 1
  53   29   64 1
  54   30   31 ar
  55   30   35 ar
  56   31   32 ar
  57   31   65 1
  58   32   33 ar
  59   32   66 1
  60   33   34 ar
  61   33   67 1
  62   34   35 ar
  63   34   68 1
  64   35   69 1
  65   36   37 1
  66   36   38 1
  67   36   70 1
  68   37   39 am
  69   37   71 1
  70   38   72 1
  71   38   73 1
  72   38   74 1
  73   39   40 1
  74   39   44 2
  75   40   41 1
  76   40   75 1
  77   40   76 1
  78   41   42 1
  79   41   43 1
  80   41   77 1
  81   42   78 1
  82   42   79 1
  83   42   80 1
  84   43   81 1
  85   43   82 1
  86   43   83 1

#	End of record

