#	Name: ASD02508033
#	Creating user name:	WinNT
#	Creation time:	15. 06. 2019 20:23

#	Modifying user name:	WinNT
#	Modification time:	15. 06. 2019 20:23

#	Program:	/corina/corina34_cracker 3.40 0067  02.08.2006

@<TRIPOS>MOLECULE
ASD02508033
  57   59    0    0    0
SMALL
NO_CHARGES


@<TRIPOS>ATOM
   1 S1            -0.2522     1.6230    -0.2023 S.o2    
   2 N2            -0.1613    -0.0293    -0.1402 N.am    
   3 C3            -0.0245    -0.6939     1.1847 C.3     
   4 C4            -0.8869    -1.9801     1.2071 C.3     
   5 N5            -2.1479    -1.8082     0.5416 N.am    
   6 S6            -3.4650    -1.2724     1.3905 S.o2    
   7 O7            -4.6105    -1.7176     0.6770 O.2     
   8 O8            -3.2234    -1.5966     2.7527 O.2     
   9 C9             1.4421    -1.0587     1.4235 C.3     
  10 C10           -0.1135    -3.1066     0.5188 C.3     
  11 C11            1.3949     2.2308    -0.3511 C.ar    
  12 O12           -0.9097     1.9432    -1.4207 O.2     
  13 O13           -0.7230     2.0470     1.0696 O.2     
  14 C14            1.9504     2.4190    -1.6017 C.ar    
  15 C15            3.2489     2.8981    -1.7181 C.ar    
  16 C16            3.9846     3.1864    -0.5754 C.ar    
  17 C17            3.4232     2.9960     0.6717 C.ar    
  18 C18            2.1279     2.5241     0.7839 C.ar    
  19 C19           -3.4694     0.4867     1.2909 C.ar    
  20 C20           -4.1367     1.1192     0.2557 C.ar    
  21 C21           -4.1409     2.5007     0.1762 C.ar    
  22 C22           -3.4762     3.2519     1.1343 C.ar    
  23 C23           -2.8081     2.6170     2.1709 C.ar    
  24 C24           -2.8103     1.2355     2.2510 C.ar    
  25 F25           -2.1600     0.6167     3.2607 F       
  26 F26           -4.7836     0.3873    -0.6776 F       
  27 O27           -3.4792     4.6087     1.0573 O.3     
  28 C28           -2.7743     5.3180     2.0780 C.3     
  29 N29            3.8139     3.0891    -2.9811 N.pl3   
  30 C30           -0.2229    -0.7745    -1.3646 C.3     
  31 C31           -2.2715    -2.1094    -0.9043 C.3     
  32 C32           -1.7045    -1.0168    -1.6984 C.3     
  33 H33           -0.3628    -0.0158     1.9682 H       
  34 H34           -1.0708    -2.2634     2.2435 H       
  35 H35            2.0490    -0.1535     1.4068 H       
  36 H36            1.5421    -1.5454     2.3937 H       
  37 H37            1.7799    -1.7372     0.6402 H       
  38 H38            0.4856    -3.6398     1.2569 H       
  39 H39           -0.8160    -3.7979     0.0532 H       
  40 H40            0.5408    -2.6848    -0.2441 H       
  41 H41            1.3759     2.1935    -2.4880 H       
  42 H42            4.9947     3.5588    -0.6624 H       
  43 H43            3.9946     3.2199     1.5604 H       
  44 H44            1.6911     2.3763     1.7605 H       
  45 H45           -4.6612     2.9939    -0.6315 H       
  46 H46           -2.2899     3.2006     2.9173 H       
  47 H47           -1.7242     5.0262     2.0642 H       
  48 H48           -2.8559     6.3899     1.8981 H       
  49 H49           -3.2051     5.0789     3.0503 H       
  50 H50            3.2993     2.8872    -3.7782 H       
  51 H51            4.7208     3.4238    -3.0611 H       
  52 H52            0.2472    -0.2052    -2.1665 H       
  53 H53            0.2880    -1.7294    -1.2411 H       
  54 H54           -1.7419    -3.0359    -1.1263 H       
  55 H55           -3.3245    -2.2290    -1.1592 H       
  56 H56           -2.2661    -0.1029    -1.5048 H       
  57 H57           -1.7937    -1.2694    -2.7550 H       
@<TRIPOS>BOND
   1    1    2 am
   2    1   11 1
   3    1   12 2
   4    1   13 2
   5    2    3 1
   6    2   30 1
   7    3    4 1
   8    3    9 1
   9    3   33 1
  10    4    5 1
  11    4   10 1
  12    4   34 1
  13    5    6 am
  14    5   31 1
  15    6    7 2
  16    6    8 2
  17    6   19 1
  18    9   35 1
  19    9   36 1
  20    9   37 1
  21   10   38 1
  22   10   39 1
  23   10   40 1
  24   11   14 ar
  25   11   18 ar
  26   14   15 ar
  27   14   41 1
  28   15   16 ar
  29   15   29 1
  30   16   17 ar
  31   16   42 1
  32   17   18 ar
  33   17   43 1
  34   18   44 1
  35   19   20 ar
  36   19   24 ar
  37   20   21 ar
  38   20   26 1
  39   21   22 ar
  40   21   45 1
  41   22   23 ar
  42   22   27 1
  43   23   24 ar
  44   23   46 1
  45   24   25 1
  46   27   28 1
  47   28   47 1
  48   28   48 1
  49   28   49 1
  50   29   50 1
  51   29   51 1
  52   30   32 1
  53   30   52 1
  54   30   53 1
  55   31   32 1
  56   31   54 1
  57   31   55 1
  58   32   56 1
  59   32   57 1

#	End of record

