#	Name: ASD03730188
#	Creating user name:	WinNT
#	Creation time:	15. 06. 2019 20:44

#	Modifying user name:	WinNT
#	Modification time:	15. 06. 2019 20:44

#	Program:	/corina/corina34_cracker 3.40 0067  02.08.2006

@<TRIPOS>MOLECULE
ASD03730188
  53   57    0    0    0
SMALL
NO_CHARGES


@<TRIPOS>ATOM
   1 O1            -0.0175     1.4360     0.0099 O.3     
   2 C2             0.0021    -0.0041     0.0020 C.3     
   3 C3             1.3451    -0.3166    -0.6717 C.3     
   4 C4             2.1592     0.9224    -0.4095 C.ar    
   5 C5             1.2616     1.9064     0.0003 C.ar    
   6 C6             1.7465     3.1673     0.3268 C.ar    
   7 C7             3.1072     3.4401     0.2345 C.ar    
   8 C8             3.9903     2.4475    -0.1856 C.ar    
   9 C9             3.5078     1.1934    -0.5042 C.ar    
  10 N10            2.1580    -2.4046    -1.1238 N.am    
  11 C11            1.9842    -1.5484    -0.0974 C.2     
  12 C12            1.1871    -0.5966    -2.1366 C.ar    
  13 C13            0.6761     0.1233    -3.1936 C.ar    
  14 C14            0.6687    -0.4226    -4.4648 C.ar    
  15 C15            1.1758    -1.6926    -4.6717 C.ar    
  16 C16            1.6891    -2.4175    -3.6165 C.ar    
  17 C17            1.7006    -1.8761    -2.3333 C.ar    
  18 O18            2.2852    -1.7358     1.0625 O.2     
  19 C19            5.4150     6.3506     0.8307 C.ar    
  20 C20            4.9819     5.0837     0.4972 C.ar    
  21 C21            3.6185     4.7887     0.5830 C.ar    
  22 C22            2.7497     5.7986     1.0056 C.ar    
  23 C23            3.2671     7.0387     1.3195 C.ar    
  24 N24            4.5614     7.2759     1.2253 N.ar    
  25 C25            2.7576    -3.7343    -0.9871 C.3     
  26 C26            1.6615    -4.7601    -0.6915 C.3     
  27 C27            2.2877    -6.1487    -0.5487 C.3     
  28 C28            1.1916    -7.1745    -0.2532 C.3     
  29 C29            1.8178    -8.5631    -0.1104 C.3     
  30 H30           -0.0214    -0.3968     1.0185 H       
  31 H31           -0.8266    -0.3989    -0.5857 H       
  32 H32            1.0642     3.9382     0.6531 H       
  33 H33            5.0470     2.6578    -0.2614 H       
  34 H34            4.1896     0.4217    -0.8300 H       
  35 H35            0.2806     1.1149    -3.0299 H       
  36 H36            0.2674     0.1415    -5.2937 H       
  37 H37            1.1696    -2.1187    -5.6641 H       
  38 H38            2.0830    -3.4088    -3.7858 H       
  39 H39            6.4672     6.5867     0.7719 H       
  40 H40            5.6862     4.3311     0.1746 H       
  41 H41            1.6891     5.6114     1.0850 H       
  42 H42            2.6037     7.8254     1.6470 H       
  43 H43            3.2647    -4.0013    -1.9142 H       
  44 H44            3.4775    -3.7258    -0.1686 H       
  45 H45            1.1544    -4.4930     0.2356 H       
  46 H46            0.9416    -4.7685    -1.5100 H       
  47 H47            2.7948    -6.4157    -1.4759 H       
  48 H48            3.0075    -6.1402     0.2697 H       
  49 H49            0.6845    -6.9074     0.6740 H       
  50 H50            0.4717    -7.1830    -1.0716 H       
  51 H51            1.0369    -9.2939     0.1002 H       
  52 H52            2.3249    -8.8302    -1.0375 H       
  53 H53            2.5376    -8.5547     0.7081 H       
@<TRIPOS>BOND
   1    1    2 1
   2    1    5 1
   3    2    3 1
   4    2   30 1
   5    2   31 1
   6    3    4 1
   7    3   11 1
   8    3   12 1
   9    4    5 ar
  10    4    9 ar
  11    5    6 ar
  12    6    7 ar
  13    6   32 1
  14    7    8 ar
  15    7   21 1
  16    8    9 ar
  17    8   33 1
  18    9   34 1
  19   10   11 am
  20   10   17 1
  21   10   25 1
  22   11   18 2
  23   12   13 ar
  24   12   17 ar
  25   13   14 ar
  26   13   35 1
  27   14   15 ar
  28   14   36 1
  29   15   16 ar
  30   15   37 1
  31   16   17 ar
  32   16   38 1
  33   19   20 ar
  34   19   24 ar
  35   19   39 1
  36   20   21 ar
  37   20   40 1
  38   21   22 ar
  39   22   23 ar
  40   22   41 1
  41   23   24 ar
  42   23   42 1
  43   25   26 1
  44   25   43 1
  45   25   44 1
  46   26   27 1
  47   26   45 1
  48   26   46 1
  49   27   28 1
  50   27   47 1
  51   27   48 1
  52   28   29 1
  53   28   49 1
  54   28   50 1
  55   29   51 1
  56   29   52 1
  57   29   53 1

#	End of record

