#	Name: ASD08830142
#	Creating user name:	WinNT
#	Creation time:	15. 06. 2019 21:19

#	Modifying user name:	WinNT
#	Modification time:	15. 06. 2019 21:19

#	Program:	/corina/corina34_cracker 3.40 0067  02.08.2006

@<TRIPOS>MOLECULE
ASD08830142
  41   43    0    0    0
SMALL
NO_CHARGES


@<TRIPOS>ATOM
   1 C1            -0.0179     1.4665     0.0101 C.ar    
   2 C2             0.0021    -0.0041     0.0020 C.2     
   3 C3            -1.2926    -0.7753     0.0102 C.3     
   4 C4            -0.9927    -2.2755    -0.0007 C.3     
   5 N5            -2.2547    -3.0273     0.0073 N.3     
   6 O6             1.0604    -0.5961    -0.0113 O.2     
   7 C7             1.1774     2.1722     0.0025 C.ar    
   8 C8            -0.0981     4.2489     0.0258 C.ar    
   9 C9            -1.2934     3.5051     0.0274 C.ar    
  10 C10           -3.0039    -2.8116    -1.2377 C.3     
  11 C11           -2.0137    -4.4583     0.2355 C.3     
  12 C12            1.1497     3.5742     0.0103 C.ar    
  13 C13           -1.2502     2.1496     0.0197 C.ar    
  14 C14            2.3394     4.3244     0.0035 C.ar    
  15 C15            2.2784     5.6843     0.0117 C.ar    
  16 C16            1.0527     6.3463     0.0273 C.ar    
  17 C17           -0.1195     5.6528     0.0348 C.ar    
  18 C18           -3.3266    -5.1559     0.4816 C.2     
  19 S19           -4.0774    -5.3775     2.0567 S.3     
  20 C20           -5.4361    -6.2202     1.3237 C.2     
  21 C21           -5.2617    -6.2863     0.0030 C.2     
  22 C22           -4.1000    -5.6946    -0.4623 C.2     
  23 H23           -1.8592    -0.5245     0.9070 H       
  24 H24           -1.8762    -0.5150    -0.8728 H       
  25 H25           -0.4261    -2.5263    -0.8975 H       
  26 H26           -0.4091    -2.5358     0.8824 H       
  27 H27            2.1205     1.6461    -0.0090 H       
  28 H28           -2.2457     4.0145     0.0396 H       
  29 H29           -2.4042    -3.1444    -2.0849 H       
  30 H30           -3.9337    -3.3794    -1.2053 H       
  31 H31           -3.2296    -1.7508    -1.3468 H       
  32 H32           -1.5318    -4.8899    -0.6417 H       
  33 H33           -1.3671    -4.5839     1.1040 H       
  34 H34           -2.1719     1.5867     0.0206 H       
  35 H35            3.2965     3.8241    -0.0079 H       
  36 H36            3.1933     6.2582     0.0065 H       
  37 H37            1.0316     7.4261     0.0340 H       
  38 H38           -1.0617     6.1806     0.0468 H       
  39 H39           -6.2821    -6.6228     1.8609 H       
  40 H40           -5.9747    -6.7621    -0.6541 H       
  41 H41           -3.8363    -5.6766    -1.5095 H       
@<TRIPOS>BOND
   1    1    2 1
   2    1    7 ar
   3    1   13 ar
   4    2    3 1
   5    2    6 2
   6    3    4 1
   7    3   23 1
   8    3   24 1
   9    4    5 1
  10    4   25 1
  11    4   26 1
  12    5   10 1
  13    5   11 1
  14    7   12 ar
  15    7   27 1
  16    8    9 ar
  17    8   12 ar
  18    8   17 ar
  19    9   13 ar
  20    9   28 1
  21   10   29 1
  22   10   30 1
  23   10   31 1
  24   11   18 1
  25   11   32 1
  26   11   33 1
  27   12   14 ar
  28   13   34 1
  29   14   15 ar
  30   14   35 1
  31   15   16 ar
  32   15   36 1
  33   16   17 ar
  34   16   37 1
  35   17   38 1
  36   18   19 1
  37   18   22 2
  38   19   20 1
  39   20   21 2
  40   20   39 1
  41   21   22 1
  42   21   40 1
  43   22   41 1

#	End of record

