#	Name: ASD00990078
#	Creating user name:	WinNT
#	Creation time:	15. 06. 2019 18:54

#	Modifying user name:	WinNT
#	Modification time:	15. 06. 2019 18:54

#	Program:	/corina/corina34_cracker 3.40 0067  02.08.2006

@<TRIPOS>MOLECULE
ASD00990078
  50   52    0    0    0
SMALL
NO_CHARGES


@<TRIPOS>ATOM
   1 C1            -0.0189     1.5417     0.0105 C.3     
   2 C2             0.0021    -0.0041     0.0020 C.3     
   3 C3             1.3807    -0.3845    -0.5690 C.3     
   4 N4             2.0801     0.8782    -0.8916 N.3     
   5 C5             1.4863     1.9087    -0.0019 C.3     
   6 C6             1.2090    -1.2098    -1.8182 C.2     
   7 O7             1.3229    -0.6908    -2.9084 O.2     
   8 N8             0.9288    -2.5248    -1.7238 N.am    
   9 C9             0.7636    -3.2799    -0.4685 C.3     
  10 C10            0.7311    -3.4422    -2.8559 C.3     
  11 C11            0.4591    -4.8430    -2.2672 C.3     
  12 C12            1.0766    -4.7494    -0.8454 C.3     
  13 C13           -0.4541    -3.0044    -3.6644 C.2     
  14 N14           -0.4778    -3.0998    -5.0154 N.am    
  15 C15            0.7449    -3.3070    -5.8244 C.3     
  16 C16            1.7045    -4.1953    -5.0328 C.3     
  17 C17            2.0017    -3.4930    -3.7014 C.3     
  18 O18           -1.4216    -2.5512    -3.0905 O.2     
  19 C19           -1.7113    -3.0662    -5.8036 C.3     
  20 C20           -1.4818    -3.3089    -7.3123 C.3     
  21 S21            0.1175    -4.2256    -7.2859 S.3     
  22 C22           -2.3630    -1.7193    -5.6242 C.2     
  23 N23           -3.5216    -1.4419    -6.2545 N.am    
  24 O24           -1.8449    -0.8848    -4.9128 O.2     
  25 H25           -0.5168     1.9256    -0.8799 H       
  26 H26           -0.4997     1.9160     0.9143 H       
  27 H27           -0.1069    -0.3895     1.0158 H       
  28 H28           -0.7919    -0.3897    -0.6376 H       
  29 H29            1.9488    -0.9443     0.1739 H       
  30 H30            3.0729     0.7923    -0.7333 H       
  31 H31            1.6357     2.9062    -0.4152 H       
  32 H32            1.9074     1.8398     1.0011 H       
  33 H33            1.4669    -2.9233     0.2840 H       
  34 H34           -0.2600    -3.1914    -0.1046 H       
  35 H35           -0.6123    -5.0348    -2.2075 H       
  36 H36            0.9574    -5.6125    -2.8568 H       
  37 H37            2.1520    -4.9247    -0.8743 H       
  38 H38            0.5876    -5.4423    -0.1607 H       
  39 H39            1.2109    -2.3602    -6.0975 H       
  40 H40            1.2407    -5.1634    -4.8438 H       
  41 H41            2.6294    -4.3312    -5.5933 H       
  42 H42            2.3491    -2.4783    -3.8958 H       
  43 H43            2.7736    -4.0442    -3.1644 H       
  44 H44           -2.3889    -3.8316    -5.4254 H       
  45 H45           -2.2777    -3.9208    -7.7367 H       
  46 H46           -1.3847    -2.3662    -7.8509 H       
  47 H47           -3.9360    -2.1093    -6.8235 H       
  48 H48           -3.9411    -0.5750    -6.1390 H       
  49 Cl49           8.0729     7.9062     6.0158 Cl      
  50 H50            8.0729     9.2762     6.0158 H       
@<TRIPOS>BOND
   1    1    2 1
   2    1    5 1
   3    1   25 1
   4    1   26 1
   5    2    3 1
   6    2   27 1
   7    2   28 1
   8    3    4 1
   9    3    6 1
  10    3   29 1
  11    4    5 1
  12    4   30 1
  13    5   31 1
  14    5   32 1
  15    6    7 2
  16    6    8 am
  17    8    9 1
  18    8   10 1
  19    9   12 1
  20    9   33 1
  21    9   34 1
  22   10   11 1
  23   10   13 1
  24   10   17 1
  25   11   12 1
  26   11   35 1
  27   11   36 1
  28   12   37 1
  29   12   38 1
  30   13   14 am
  31   13   18 2
  32   14   15 1
  33   14   19 1
  34   15   16 1
  35   15   21 1
  36   15   39 1
  37   16   17 1
  38   16   40 1
  39   16   41 1
  40   17   42 1
  41   17   43 1
  42   19   20 1
  43   19   22 1
  44   19   44 1
  45   20   21 1
  46   20   45 1
  47   20   46 1
  48   22   23 am
  49   22   24 2
  50   23   47 1
  51   23   48 1
  52   49   50 1

#	End of record

