#	Name: ASD02560063
#	Creating user name:	WinNT
#	Creation time:	15. 06. 2019 20:24

#	Modifying user name:	WinNT
#	Modification time:	15. 06. 2019 20:24

#	Program:	/corina/corina34_cracker 3.40 0067  02.08.2006

@<TRIPOS>MOLECULE
ASD02560063
  44   46    0    0    0
SMALL
NO_CHARGES


@<TRIPOS>ATOM
   1 C1             1.2486     1.6209    -1.1695 C.ar    
   2 C2             1.2764     0.2624    -1.4168 C.ar    
   3 C3             1.1314    -0.6360    -0.3674 C.ar    
   4 C4             0.9587    -0.1645     0.9277 C.ar    
   5 C5             0.9318     1.1952     1.1680 C.ar    
   6 C6             1.0765     2.0869     0.1210 C.ar    
   7 C7             1.0471     3.5700     0.3871 C.3     
   8 C8             1.4635    -0.2446    -2.8236 C.3     
   9 C9             0.8004    -1.1356     2.0692 C.3     
  10 N10            1.1586    -2.0117    -0.6143 N.pl3   
  11 C11            2.3602    -2.6408    -0.9014 C.ar    
  12 C12            3.5246    -1.8929    -1.0878 C.ar    
  13 C13            4.6993    -2.5622    -1.3717 C.ar    
  14 N14            4.6873    -3.8841    -1.4583 N.ar    
  15 C15            3.5674    -4.5684    -1.2768 C.ar    
  16 N16            2.4219    -3.9652    -0.9980 N.ar    
  17 N17            3.5965    -5.9501    -1.3758 N.pl3   
  18 C18            4.7643    -6.5954    -1.7786 C.ar    
  19 C19            5.6184    -5.9806    -2.6890 C.ar    
  20 C20            6.7730    -6.6150    -3.0886 C.ar    
  21 C21            7.0869    -7.8782    -2.5788 C.ar    
  22 C22            6.2265    -8.4929    -1.6643 C.ar    
  23 C23            5.0762    -7.8505    -1.2650 C.ar    
  24 C24            8.2868    -8.5413    -2.9926 C.1     
  25 N25            9.2387    -9.0673    -3.3209 N.1     
  26 H26            1.3658     2.3200    -1.9844 H       
  27 H27            0.7973     1.5625     2.1747 H       
  28 H28            2.0585     3.9231     0.5882 H       
  29 H29            0.6482     4.0878    -0.4852 H       
  30 H30            0.4134     3.7717     1.2507 H       
  31 H31            2.5283    -0.3251    -3.0422 H       
  32 H32            0.9973    -1.2250    -2.9214 H       
  33 H33            1.0001     0.4497    -3.5246 H       
  34 H34            1.7842    -1.4408     2.4257 H       
  35 H35            0.2526    -0.6563     2.8806 H       
  36 H36            0.2500    -2.0119     1.7270 H       
  37 H37            0.3368    -2.5261    -0.5846 H       
  38 H38            3.5072    -0.8157    -1.0120 H       
  39 H39            5.6175    -2.0137    -1.5217 H       
  40 H40            2.8041    -6.4683    -1.1649 H       
  41 H41            5.3751    -5.0048    -3.0827 H       
  42 H42            7.4353    -6.1374    -3.7955 H       
  43 H43            6.4659    -9.4688    -1.2685 H       
  44 H44            4.4111    -8.3248    -0.5586 H       
@<TRIPOS>BOND
   1    1    2 ar
   2    1    6 ar
   3    1   26 1
   4    2    3 ar
   5    2    8 1
   6    3    4 ar
   7    3   10 1
   8    4    5 ar
   9    4    9 1
  10    5    6 ar
  11    5   27 1
  12    6    7 1
  13    7   28 1
  14    7   29 1
  15    7   30 1
  16    8   31 1
  17    8   32 1
  18    8   33 1
  19    9   34 1
  20    9   35 1
  21    9   36 1
  22   10   11 1
  23   10   37 1
  24   11   12 ar
  25   11   16 ar
  26   12   13 ar
  27   12   38 1
  28   13   14 ar
  29   13   39 1
  30   14   15 ar
  31   15   16 ar
  32   15   17 1
  33   17   18 1
  34   17   40 1
  35   18   19 ar
  36   18   23 ar
  37   19   20 ar
  38   19   41 1
  39   20   21 ar
  40   20   42 1
  41   21   22 ar
  42   21   24 1
  43   22   23 ar
  44   22   43 1
  45   23   44 1
  46   24   25 3

#	End of record

