#	Name: ASD03731227
#	Creating user name:	WinNT
#	Creation time:	15. 06. 2019 20:45

#	Modifying user name:	WinNT
#	Modification time:	15. 06. 2019 20:45

#	Program:	/corina/corina34_cracker 3.40 0067  02.08.2006

@<TRIPOS>MOLECULE
ASD03731227
  62   68    0    0    0
SMALL
NO_CHARGES


@<TRIPOS>ATOM
   1 C1            -0.0191     1.4720     0.0332 C.2     
   2 C2            -0.0014    -0.0060     0.0376 C.ar    
   3 C3             1.2140    -0.6925     0.0461 C.ar    
   4 C4             1.2234    -2.0720     0.0507 C.ar    
   5 C5             0.0317    -2.7750     0.0467 C.ar    
   6 C6            -1.1764    -2.1007     0.0378 C.ar    
   7 C7            -1.2001    -0.7214     0.0390 C.ar    
   8 O8             1.0263     2.0924     0.0370 O.2     
   9 N9            -1.1942     2.1319     0.0193 N.am    
  10 C10            0.0497    -4.2819     0.0517 C.3     
  11 O11           -2.1560    -1.4774     6.2936 O.3     
  12 C12           -2.4047    -1.5498     7.7099 C.3     
  13 O13           -2.9079    -2.8852     7.9012 O.3     
  14 C14           -2.3684    -3.6277     6.8901 C.ar    
  15 C15           -1.9071    -2.7616     5.9014 C.ar    
  16 C16           -2.2303    -4.9950     6.7312 C.ar    
  17 C17           -1.6338    -5.5151     5.5866 C.ar    
  18 C18           -1.1844    -4.6402     4.6022 C.ar    
  19 C19           -1.3151    -3.2763     4.7604 C.ar    
  20 O20           -1.3877    -6.8123     5.2444 O.3     
  21 C21           -0.6232    -5.4919     3.4951 C.3     
  22 C22           -1.1552    -6.8932     3.8249 C.3     
  23 N23            0.0484    -4.7657     1.4345 N.am    
  24 C24           -1.0706    -5.0281     2.1388 C.2     
  25 C25            0.8757    -5.4580     3.4526 C.ar    
  26 C26            1.8605    -5.7632     4.3655 C.ar    
  27 C27            3.1930    -5.6269     4.0189 C.ar    
  28 C28            3.5332    -5.1830     2.7539 C.ar    
  29 C29            2.5504    -4.8751     1.8364 C.ar    
  30 C30            1.2066    -5.0097     2.1765 C.ar    
  31 O31           -2.2146    -4.9125     1.7527 O.2     
  32 C32           -1.2149     3.5255     0.1325 C.ar    
  33 C33           -2.1864     4.2630    -0.5315 C.ar    
  34 C34           -2.2038     5.6412    -0.4173 C.ar    
  35 C35           -1.2530     6.2846     0.3582 C.ar    
  36 C36           -0.2854     5.5515     1.0192 C.ar    
  37 C37           -0.2674     4.1742     0.9139 C.ar    
  38 C38           -3.2197     3.5626    -1.3757 C.3     
  39 F39           -3.1481     6.3604    -1.0626 F       
  40 H40            2.1449    -0.1449     0.0489 H       
  41 H41            2.1630    -2.6044     0.0569 H       
  42 H42           -2.1031    -2.6555     0.0340 H       
  43 H43           -2.1438    -0.1962     0.0369 H       
  44 H44           -2.0256     1.6400    -0.0692 H       
  45 H45           -0.8332    -4.6576    -0.4655 H       
  46 H46            0.9467    -4.6362    -0.4563 H       
  47 H47           -1.4802    -1.4051     8.2689 H       
  48 H48           -3.1516    -0.8131     8.0057 H       
  49 H49           -2.5879    -5.6632     7.5007 H       
  50 H50           -0.9550    -2.6080     3.9921 H       
  51 H51           -0.4085    -7.6541     3.5978 H       
  52 H52           -2.0848    -7.0900     3.2910 H       
  53 H53            1.5925    -6.1095     5.3527 H       
  54 H54            3.9656    -5.8670     4.7342 H       
  55 H55            4.5733    -5.0765     2.4835 H       
  56 H56            2.8240    -4.5285     0.8508 H       
  57 H57           -1.2677     7.3609     0.4462 H       
  58 H58            0.4547     6.0558     1.6227 H       
  59 H59            0.4863     3.6024     1.4348 H       
  60 H60           -4.0859     3.3178    -0.7610 H       
  61 H61           -3.5265     4.2170    -2.1916 H       
  62 H62           -2.7941     2.6465    -1.7852 H       
@<TRIPOS>BOND
   1    1    2 1
   2    1    8 2
   3    1    9 am
   4    2    3 ar
   5    2    7 ar
   6    3    4 ar
   7    3   40 1
   8    4    5 ar
   9    4   41 1
  10    5    6 ar
  11    5   10 1
  12    6    7 ar
  13    6   42 1
  14    7   43 1
  15    9   32 1
  16    9   44 1
  17   10   23 1
  18   10   45 1
  19   10   46 1
  20   11   12 1
  21   11   15 1
  22   12   13 1
  23   12   47 1
  24   12   48 1
  25   13   14 1
  26   14   15 ar
  27   14   16 ar
  28   15   19 ar
  29   16   17 ar
  30   16   49 1
  31   17   18 ar
  32   17   20 1
  33   18   19 ar
  34   18   21 1
  35   19   50 1
  36   20   22 1
  37   21   22 1
  38   21   24 1
  39   21   25 1
  40   22   51 1
  41   22   52 1
  42   23   24 am
  43   23   30 1
  44   24   31 2
  45   25   26 ar
  46   25   30 ar
  47   26   27 ar
  48   26   53 1
  49   27   28 ar
  50   27   54 1
  51   28   29 ar
  52   28   55 1
  53   29   30 ar
  54   29   56 1
  55   32   33 ar
  56   32   37 ar
  57   33   34 ar
  58   33   38 1
  59   34   35 ar
  60   34   39 1
  61   35   36 ar
  62   35   57 1
  63   36   37 ar
  64   36   58 1
  65   37   59 1
  66   38   60 1
  67   38   61 1
  68   38   62 1

#	End of record

