#	Name: ASD01882531
#	Creating user name:	WinNT
#	Creation time:	15. 06. 2019 19:44

#	Modifying user name:	WinNT
#	Modification time:	15. 06. 2019 19:44

#	Program:	/corina/corina34_cracker 3.40 0067  02.08.2006

@<TRIPOS>MOLECULE
ASD01882531
  55   59    0    0    0
SMALL
NO_CHARGES


@<TRIPOS>ATOM
   1 C1            -0.2574     1.2472     0.0432 C.2     
   2 C2            -0.1508    -0.1580     0.0418 C.2     
   3 C3             1.0836    -0.7304     0.0041 C.2     
   4 C4             2.2287     0.0836    -0.0328 C.2     
   5 C5             2.1107     1.4279    -0.0305 C.2     
   6 N6             0.8801     2.0155     0.0066 N.pl3   
   7 N7            -0.8510     3.2939     0.0560 N.2     
   8 N8            -1.2834     2.0820     0.0688 N.2     
   9 C9             0.4566     3.3084     0.0176 C.2     
  10 C10            1.2219    -2.2311     0.0023 C.3     
  11 N11            1.3437    -2.7100    -1.3811 N.3     
  12 C12            1.7161    -4.1311    -1.4155 C.3     
  13 C13            1.7547    -4.6105    -2.8685 C.3     
  14 N14            2.7183    -3.7981    -3.6242 N.3     
  15 C15            2.3459    -2.3769    -3.5897 C.3     
  16 C16            2.3073    -1.8975    -2.1368 C.3     
  17 C17            2.8345    -4.2550    -4.9440 C.ar    
  18 C18            1.7414    -4.1989    -5.7993 C.ar    
  19 C19            1.8595    -4.6509    -7.1018 C.ar    
  20 C20            3.0636    -5.1589    -7.5538 C.ar    
  21 C21            4.1550    -5.2177    -6.7072 C.ar    
  22 C22            4.0473    -4.7610    -5.4033 C.ar    
  23 O23            5.1227    -4.8127    -4.5721 O.3     
  24 C24            6.3345    -5.3442    -5.1115 C.3     
  25 F25            0.5637    -3.7039    -5.3596 F       
  26 C26            1.3336     4.5336    -0.0108 C.3     
  27 C27            1.5867     4.9461    -1.4622 C.3     
  28 C28            2.3629     6.2424    -1.7031 C.3     
  29 C29            3.0285     4.8911    -1.9712 C.3     
  30 Cl30          -1.5767    -1.1471     0.0883 Cl      
  31 H31            3.2087    -0.3693    -0.0628 H       
  32 H32            2.9976     2.0435    -0.0588 H       
  33 H33            2.1116    -2.5146     0.5646 H       
  34 H34            0.3419    -2.6775     0.4652 H       
  35 H35            2.6995    -4.2604    -0.9637 H       
  36 H36            0.9808    -4.7133    -0.8600 H       
  37 H37            2.0589    -5.6568    -2.8983 H       
  38 H38            0.7646    -4.5066    -3.3122 H       
  39 H39            3.0811    -1.7947    -4.1453 H       
  40 H40            1.3625    -2.2476    -4.0416 H       
  41 H41            2.0030    -0.8513    -2.1070 H       
  42 H42            3.2974    -2.0014    -1.6931 H       
  43 H43            1.0095    -4.6073    -7.7666 H       
  44 H44            3.1516    -5.5110    -8.5710 H       
  45 H45            5.0936    -5.6154    -7.0638 H       
  46 H46            6.6501    -4.7390    -5.9614 H       
  47 H47            7.1105    -5.3284    -4.3462 H       
  48 H48            6.1674    -6.3705    -5.4384 H       
  49 H49            0.8375     5.3479     0.5172 H       
  50 H50            2.2839     4.3115     0.4748 H       
  51 H51            0.7939     4.6958    -2.1671 H       
  52 H52            2.0810     6.8447    -2.5668 H       
  53 H53            2.6933     6.8013    -0.8276 H       
  54 H54            3.7968     4.5610    -1.2720 H       
  55 H55            3.1845     4.6044    -3.0112 H       
@<TRIPOS>BOND
   1    1    2 1
   2    1    6 1
   3    1    8 2
   4    2    3 2
   5    2   30 1
   6    3    4 1
   7    3   10 1
   8    4    5 2
   9    4   31 1
  10    5    6 1
  11    5   32 1
  12    6    9 1
  13    7    8 1
  14    7    9 2
  15    9   26 1
  16   10   11 1
  17   10   33 1
  18   10   34 1
  19   11   12 1
  20   11   16 1
  21   12   13 1
  22   12   35 1
  23   12   36 1
  24   13   14 1
  25   13   37 1
  26   13   38 1
  27   14   15 1
  28   14   17 1
  29   15   16 1
  30   15   39 1
  31   15   40 1
  32   16   41 1
  33   16   42 1
  34   17   18 ar
  35   17   22 ar
  36   18   19 ar
  37   18   25 1
  38   19   20 ar
  39   19   43 1
  40   20   21 ar
  41   20   44 1
  42   21   22 ar
  43   21   45 1
  44   22   23 1
  45   23   24 1
  46   24   46 1
  47   24   47 1
  48   24   48 1
  49   26   27 1
  50   26   49 1
  51   26   50 1
  52   27   28 1
  53   27   29 1
  54   27   51 1
  55   28   29 1
  56   28   52 1
  57   28   53 1
  58   29   54 1
  59   29   55 1

#	End of record

