#	Name: ASD01881530
#	Creating user name:	WinNT
#	Creation time:	15. 06. 2019 19:42

#	Modifying user name:	WinNT
#	Modification time:	15. 06. 2019 19:42

#	Program:	/corina/corina34_cracker 3.40 0067  02.08.2006

@<TRIPOS>MOLECULE
ASD01881530
  28   30    0    0    0
SMALL
NO_CHARGES


@<TRIPOS>ATOM
   1 N1            -0.0154     1.2839     0.0091 N.pl3   
   2 N2             0.0021    -0.0041     0.0020 N.2     
   3 N3             1.2033    -0.4649    -0.0119 N.2     
   4 C4             2.0741     0.5645    -0.0147 C.ar    
   5 C5             1.2843     1.7298    -0.0009 C.ar    
   6 C6             3.4670     0.6759    -0.0271 C.ar    
   7 C7             4.0484     1.9285    -0.0255 C.ar    
   8 C8             3.2560     3.0739    -0.0118 C.ar    
   9 C9             1.8924     2.9784    -0.0004 C.ar    
  10 O10            5.4033     2.0444    -0.0370 O.3     
  11 C11            5.9411     3.3683    -0.0346 C.3     
  12 C12           -1.2133     2.1272     0.0196 C.3     
  13 C13           -1.6228     2.4135     1.4657 C.3     
  14 C14           -2.7884     3.3784     1.6921 C.3     
  15 C15           -2.9777     1.8797     1.9352 C.3     
  16 Br16           4.5472    -0.8761    -0.0451 Br      
  17 H17            3.7236     4.0474    -0.0103 H       
  18 H18            1.2882     3.8735     0.0099 H       
  19 H19            7.0299     3.3182    -0.0447 H       
  20 H20            5.5939     3.9031    -0.9187 H       
  21 H21            5.6098     3.8935     0.8612 H       
  22 H22           -1.0007     3.0667    -0.4906 H       
  23 H23           -2.0254     1.6113    -0.4926 H       
  24 H24           -0.8089     2.4286     2.1906 H       
  25 H25           -2.7415     4.0280     2.5661 H       
  26 H26           -3.2635     3.8093     0.8108 H       
  27 H27           -3.5773     1.3246     1.2137 H       
  28 H28           -3.0553     1.5434     2.9691 H       
@<TRIPOS>BOND
   1    1    2 1
   2    1    5 1
   3    1   12 1
   4    2    3 2
   5    3    4 1
   6    4    5 ar
   7    4    6 ar
   8    5    9 ar
   9    6    7 ar
  10    6   16 1
  11    7    8 ar
  12    7   10 1
  13    8    9 ar
  14    8   17 1
  15    9   18 1
  16   10   11 1
  17   11   19 1
  18   11   20 1
  19   11   21 1
  20   12   13 1
  21   12   22 1
  22   12   23 1
  23   13   14 1
  24   13   15 1
  25   13   24 1
  26   14   15 1
  27   14   25 1
  28   14   26 1
  29   15   27 1
  30   15   28 1

#	End of record

