#	Name: ASD02030367
#	Creating user name:	WinNT
#	Creation time:	15. 06. 2019 20:15

#	Modifying user name:	WinNT
#	Modification time:	15. 06. 2019 20:15

#	Program:	/corina/corina34_cracker 3.40 0067  02.08.2006

@<TRIPOS>MOLECULE
ASD02030367
  31   32    0    0    0
SMALL
NO_CHARGES


@<TRIPOS>ATOM
   1 N1            -0.0968     1.4516    -0.1262 N.3     
   2 C2            -0.0821    -0.0170    -0.1574 C.3     
   3 C3             0.6341    -0.4904    -1.4267 C.3     
   4 N4             1.9590     0.1461    -1.4807 N.am    
   5 C5             2.0368     1.6058    -1.3183 C.3     
   6 C6             1.2654     1.9967    -0.0533 C.3     
   7 C7             3.0722    -0.5888    -1.6733 C.2     
   8 O8             4.1458    -0.0374    -1.8300 O.2     
   9 C9             2.9898    -2.0519    -1.6941 C.2     
  10 C10            4.0053    -2.9083    -2.0128 C.2     
  11 O11            1.8992    -2.7888    -1.3961 O.3     
  12 C12            2.1936    -4.0898    -1.5227 C.2     
  13 C13            3.4873    -4.2077    -1.9031 C.2     
  14 Br14           4.4209    -5.8202    -2.2259 Br      
  15 Br15           1.0003    -5.5244    -1.2160 Br      
  16 C16            1.2000     3.5215     0.0541 C.3     
  17 C17            0.5399     3.9117     1.3781 C.3     
  18 H18           -0.5937     1.8252    -0.9208 H       
  19 H19            0.4443    -0.3942     0.7194 H       
  20 H20           -1.1058    -0.3911    -0.1564 H       
  21 H21            0.7493    -1.5740    -1.3996 H       
  22 H22            0.0538    -0.2029    -2.3034 H       
  23 H23            3.0793     1.9082    -1.2196 H       
  24 H24            1.5913     2.0948    -2.1846 H       
  25 H25            1.7730     1.5915     0.8221 H       
  26 H26            5.0121    -2.6375    -2.2947 H       
  27 H27            2.2090     3.9320     0.0164 H       
  28 H28            0.6146     3.9194    -0.7748 H       
  29 H29            0.4933     4.9980     1.4546 H       
  30 H30           -0.4692     3.5012     1.4159 H       
  31 H31            1.1253     3.5139     2.2071 H       
@<TRIPOS>BOND
   1    1    2 1
   2    1    6 1
   3    1   18 1
   4    2    3 1
   5    2   19 1
   6    2   20 1
   7    3    4 1
   8    3   21 1
   9    3   22 1
  10    4    5 1
  11    4    7 am
  12    5    6 1
  13    5   23 1
  14    5   24 1
  15    6   16 1
  16    6   25 1
  17    7    8 2
  18    7    9 1
  19    9   11 1
  20    9   10 2
  21   10   13 1
  22   10   26 1
  23   11   12 1
  24   12   13 2
  25   12   15 1
  26   13   14 1
  27   16   17 1
  28   16   27 1
  29   16   28 1
  30   17   29 1
  31   17   30 1
  32   17   31 1

#	End of record

