#	Name: ASD07300882
#	Creating user name:	WinNT
#	Creation time:	15. 06. 2019 21:10

#	Modifying user name:	WinNT
#	Modification time:	15. 06. 2019 21:10

#	Program:	/corina/corina34_cracker 3.40 0067  02.08.2006

@<TRIPOS>MOLECULE
ASD07300882
  48   52    0    0    0
SMALL
NO_CHARGES


@<TRIPOS>ATOM
   1 N1            -0.0163     1.3527     0.0095 N.am    
   2 C2             0.0021    -0.0041     0.0020 C.2     
   3 N3             1.1018    -0.6986    -0.0118 N.2     
   4 C4             2.3098    -0.1133    -0.0201 C.2     
   5 C5             2.3914     1.2881    -0.0138 C.2     
   6 C6             1.1433     2.0510     0.0022 C.2     
   7 N7             3.5868    -0.5761    -0.0344 N.pl3   
   8 N8             4.4535     0.5241    -0.0369 N.2     
   9 C9             3.7572     1.6272    -0.0249 C.2     
  10 O10            1.1474     3.2693     0.0079 O.2     
  11 C11            3.9887    -1.9848    -0.0448 C.3     
  12 C12            4.8103    -2.2715    -1.3033 C.3     
  13 C13            5.2300    -3.7427    -1.3141 C.3     
  14 C14            6.0753    -4.0411    -0.0742 C.3     
  15 C15            5.2537    -3.7545     1.1842 C.3     
  16 C16            4.8339    -2.2832     1.1951 C.3     
  17 C17           -1.3127    -0.7405     0.0106 C.3     
  18 C18           -1.2205    -2.1589     0.5976 C.3     
  19 C19           -2.1806    -2.5990    -0.5202 C.3     
  20 C20           -1.6559    -1.4040    -1.3336 C.3     
  21 C21           -1.8080    -2.2794     1.9802 C.2     
  22 O22           -1.1552    -2.6605     3.0910 O.3     
  23 C23           -2.0545    -2.6273     4.0888 C.2     
  24 N24           -3.1894    -2.2412     3.5787 N.2     
  25 N25           -3.0405    -2.0277     2.3187 N.2     
  26 C26           -1.7975    -2.9733     5.5328 C.3     
  27 F27            6.4591    -5.3864    -0.0842 F       
  28 F28            7.2157    -3.2308    -0.0812 F       
  29 H29           -0.8640     1.8242     0.0160 H       
  30 H30            4.1599     2.6293    -0.0236 H       
  31 H31            3.1001    -2.6162    -0.0394 H       
  32 H32            4.2081    -2.0589    -2.1866 H       
  33 H33            5.6988    -1.6401    -1.3087 H       
  34 H34            4.3415    -4.3741    -1.3087 H       
  35 H35            5.8153    -3.9469    -2.2107 H       
  36 H36            4.3651    -4.3858     1.1896 H       
  37 H37            5.8559    -3.9671     2.0675 H       
  38 H38            5.7225    -1.6519     1.1896 H       
  39 H39            4.2486    -2.0790     2.0916 H       
  40 H40           -2.1272    -0.1477     0.4270 H       
  41 H41           -0.2270    -2.6003     0.5188 H       
  42 H42           -1.9302    -3.5667    -0.9549 H       
  43 H43           -3.2332    -2.5148    -0.2499 H       
  44 H44           -2.4323    -0.8818    -1.8927 H       
  45 H45           -0.7814    -1.6391    -1.9403 H       
  46 H46           -1.4880    -2.0776     6.0715 H       
  47 H47           -2.7096    -3.3690     5.9795 H       
  48 H48           -1.0089    -3.7235     5.5919 H       
@<TRIPOS>BOND
   1    1    2 1
   2    1    6 am
   3    1   29 1
   4    2    3 2
   5    2   17 1
   6    3    4 1
   7    4    5 2
   8    4    7 1
   9    5    6 1
  10    5    9 1
  11    6   10 2
  12    7    8 1
  13    7   11 1
  14    8    9 2
  15    9   30 1
  16   11   12 1
  17   11   16 1
  18   11   31 1
  19   12   13 1
  20   12   32 1
  21   12   33 1
  22   13   14 1
  23   13   34 1
  24   13   35 1
  25   14   15 1
  26   14   27 1
  27   14   28 1
  28   15   16 1
  29   15   36 1
  30   15   37 1
  31   16   38 1
  32   16   39 1
  33   17   18 1
  34   17   20 1
  35   17   40 1
  36   18   19 1
  37   18   21 1
  38   18   41 1
  39   19   20 1
  40   19   42 1
  41   19   43 1
  42   20   44 1
  43   20   45 1
  44   21   22 1
  45   21   25 2
  46   22   23 1
  47   23   24 2
  48   23   26 1
  49   24   25 1
  50   26   46 1
  51   26   47 1
  52   26   48 1

#	End of record

