#	Name: ASD01420012
#	Creating user name:	WinNT
#	Creation time:	15. 06. 2019 19:20

#	Modifying user name:	WinNT
#	Modification time:	15. 06. 2019 19:20

#	Program:	/corina/corina34_cracker 3.40 0067  02.08.2006

@<TRIPOS>MOLECULE
ASD01420012
  23   23    0    0    0
SMALL
NO_CHARGES


@<TRIPOS>ATOM
   1 C1            -0.0167     1.3823     0.0096 C.ar    
   2 C2             0.0021    -0.0041     0.0020 C.ar    
   3 C3             1.2130    -0.6784    -0.0132 C.ar    
   4 C4             2.4034     0.0352    -0.0207 C.ar    
   5 C5             2.3820     1.4166    -0.0126 C.ar    
   6 C6             1.1760     2.0912     0.0021 C.ar    
   7 O7            -1.2024     2.0463     0.0189 O.3     
   8 O8             1.2347    -2.0372    -0.0202 O.3     
   9 C9             3.7203    -0.6973    -0.0372 C.3     
  10 C10            4.5046    -0.3082    -1.2919 C.3     
  11 C11            4.5285    -0.3216     1.2064 C.3     
  12 H12           -0.9253    -0.5576     0.0083 H       
  13 H13            3.3094     1.9702    -0.0181 H       
  14 H14            1.1619     3.1711     0.0080 H       
  15 H15           -1.5414     2.2337     0.9049 H       
  16 H16            1.2324    -2.4260    -0.9056 H       
  17 H17            3.5382    -1.7720    -0.0412 H       
  18 H18            5.4571    -0.8380    -1.3039 H       
  19 H19            3.9289    -0.5758    -2.1779 H       
  20 H20            4.6867     0.7665    -1.2879 H       
  21 H21            3.9697    -0.5988     2.1003 H       
  22 H22            5.4810    -0.8514     1.1945 H       
  23 H23            4.7105     0.7531     1.2104 H       
@<TRIPOS>BOND
   1    1    2 ar
   2    1    6 ar
   3    1    7 1
   4    2    3 ar
   5    2   12 1
   6    3    4 ar
   7    3    8 1
   8    4    5 ar
   9    4    9 1
  10    5    6 ar
  11    5   13 1
  12    6   14 1
  13    7   15 1
  14    8   16 1
  15    9   10 1
  16    9   11 1
  17    9   17 1
  18   10   18 1
  19   10   19 1
  20   10   20 1
  21   11   21 1
  22   11   22 1
  23   11   23 1

#	End of record

