#	Name: ASD00171061
#	Creating user name:	WinNT
#	Creation time:	15. 06. 2019 18:32

#	Modifying user name:	WinNT
#	Modification time:	15. 06. 2019 18:32

#	Program:	/corina/corina34_cracker 3.40 0067  02.08.2006

@<TRIPOS>MOLECULE
ASD00171061
  64   67    0    0    0
SMALL
NO_CHARGES


@<TRIPOS>ATOM
   1 C1            -0.0492     1.7238     0.6138 C.ar    
   2 C2            -0.1330     0.3339     0.6296 C.ar    
   3 C3            -1.3474    -0.2805     0.7428 C.ar    
   4 C4            -2.5147     0.4864     0.8436 C.ar    
   5 C5            -2.4331     1.8852     0.8285 C.ar    
   6 C6            -1.2051     2.4969     0.7194 C.ar    
   7 Cl7           -1.0963     4.2294     0.6999 Cl      
   8 C8            -3.8211    -0.1736     0.9644 C.2     
   9 C9            -4.9462     0.5681     1.0616 C.2     
  10 C10           -6.2463    -0.0888     1.1818 C.2     
  11 N11           -7.3556     0.6465     1.3949 N.am    
  12 O12           -6.3272    -1.2999     1.0895 O.2     
  13 C13           -7.2605     2.0954     1.6216 C.3     
  14 C14           -8.1520     2.8110     0.5992 C.3     
  15 N15           -9.4784     2.1782     0.6084 N.am    
  16 C16           -9.5735     0.7292     0.3817 C.3     
  17 C17           -8.6824     0.0146     1.3986 C.3     
  18 S18            1.5220     2.5077     0.4674 S.3     
  19 C19            2.6480     1.1540     0.5328 C.ar    
  20 C20          -10.5877     2.9134     0.8215 C.2     
  21 C21          -11.9411     2.2507     0.8282 C.3     
  22 O22          -10.4967     4.1083     1.0078 O.2     
  23 C23            3.1130     0.5797    -0.6427 C.ar    
  24 C24            3.9992    -0.4852    -0.5909 C.ar    
  25 C25            4.4184    -0.9783     0.6392 C.ar    
  26 C26            3.9529    -0.4015     1.8117 C.ar    
  27 C27            3.0757     0.6641     1.7604 C.ar    
  28 O28            4.4523    -1.0325    -1.7519 O.3     
  29 C29            5.0442    -2.3331    -1.6627 C.3     
  30 C30            6.0194    -2.3373    -0.4778 C.3     
  31 O31            5.2825    -2.0290     0.7103 O.3     
  32 C32            6.6517    -3.6988    -0.3448 C.2     
  33 N33            7.5772    -4.1022    -1.2376 N.am    
  34 O34            6.3276    -4.4316     0.5657 O.2     
  35 C35            8.2661    -5.3816    -1.0512 C.3     
  36 C36            7.8943    -3.2612    -2.3945 C.3     
  37 H37            0.7655    -0.2603     0.5517 H       
  38 H38           -1.4076    -1.3588     0.7543 H       
  39 H39           -3.3304     2.4812     0.9059 H       
  40 H40           -3.8824    -1.2518     0.9756 H       
  41 H41           -4.8849     1.6463     1.0504 H       
  42 H42           -7.5992     2.3308     2.6305 H       
  43 H43           -6.2271     2.4184     1.4953 H       
  44 H44           -8.2466     3.8628     0.8690 H       
  45 H45           -7.7120     2.7238    -0.3943 H       
  46 H46          -10.6069     0.4063     0.5079 H       
  47 H47           -9.2347     0.4938    -0.6272 H       
  48 H48           -8.5887    -1.0370     1.1275 H       
  49 H49           -9.1202     0.1010     2.3931 H       
  50 H50          -11.9716     1.4946     1.6127 H       
  51 H51          -12.7113     2.9991     1.0147 H       
  52 H52          -12.1195     1.7789    -0.1381 H       
  53 H53            2.7841     0.9625    -1.5976 H       
  54 H54            4.2806    -0.7838     2.7672 H       
  55 H55            2.7152     1.1110     2.6751 H       
  56 H56            4.2670    -3.0803    -1.5017 H       
  57 H57            5.5835    -2.5554    -2.5834 H       
  58 H58            6.7931    -1.5860    -0.6358 H       
  59 H59            7.7053    -6.1722    -1.5496 H       
  60 H60            9.2669    -5.3210    -1.4788 H       
  61 H61            8.3388    -5.6034     0.0135 H       
  62 H62            7.3573    -2.3160    -2.3147 H       
  63 H63            8.9669    -3.0687    -2.4207 H       
  64 H64            7.5947    -3.7732    -3.3089 H       
@<TRIPOS>BOND
   1    1    2 ar
   2    1   18 1
   3    1    6 ar
   4    2    3 ar
   5    2   37 1
   6    3    4 ar
   7    3   38 1
   8    4    5 ar
   9    4    8 1
  10    5    6 ar
  11    5   39 1
  12    6    7 1
  13    8    9 2
  14    8   40 1
  15    9   10 1
  16    9   41 1
  17   10   11 am
  18   10   12 2
  19   11   13 1
  20   11   17 1
  21   13   14 1
  22   13   42 1
  23   13   43 1
  24   14   15 1
  25   14   44 1
  26   14   45 1
  27   15   16 1
  28   15   20 am
  29   16   17 1
  30   16   46 1
  31   16   47 1
  32   17   48 1
  33   17   49 1
  34   18   19 1
  35   19   23 ar
  36   19   27 ar
  37   20   21 1
  38   20   22 2
  39   21   50 1
  40   21   51 1
  41   21   52 1
  42   23   24 ar
  43   23   53 1
  44   24   25 ar
  45   24   28 1
  46   25   26 ar
  47   25   31 1
  48   26   27 ar
  49   26   54 1
  50   27   55 1
  51   28   29 1
  52   29   30 1
  53   29   56 1
  54   29   57 1
  55   30   31 1
  56   30   32 1
  57   30   58 1
  58   32   33 am
  59   32   34 2
  60   33   35 1
  61   33   36 1
  62   35   59 1
  63   35   60 1
  64   35   61 1
  65   36   62 1
  66   36   63 1
  67   36   64 1

#	End of record

