#	Name: ASD00780003
#	Creating user name:	WinNT
#	Creation time:	15. 06. 2019 18:37

#	Modifying user name:	WinNT
#	Modification time:	15. 06. 2019 18:37

#	Program:	/corina/corina34_cracker 3.40 0067  02.08.2006

@<TRIPOS>MOLECULE
ASD00780003
  57   59    0    0    0
SMALL
NO_CHARGES


@<TRIPOS>ATOM
   1 C1             0.1851     1.3418     0.2763 C.ar    
   2 C2             0.2328    -0.0342     0.2489 C.ar    
   3 C3             1.4156    -0.6875    -0.0677 C.ar    
   4 C4             2.5575     0.0257    -0.3583 C.ar    
   5 C5             2.5326     1.4181    -0.3367 C.ar    
   6 C6             1.3338     2.0772    -0.0164 C.ar    
   7 N7             3.6684     2.1430    -0.6251 N.pl3   
   8 C8             3.6963     3.4823    -0.6170 C.2     
   9 C9             2.5823     4.2390    -0.3177 C.2     
  10 C10            1.3213     3.5518     0.0033 C.2     
  11 O11            0.3097     4.1747     0.2744 O.2     
  12 C12            2.6539     5.7083    -0.3190 C.2     
  13 O13            3.7238     6.2650    -0.4779 O.2     
  14 N14            1.5342     6.4377    -0.1442 N.am    
  15 C15            1.6187     7.8272    -0.0091 C.ar    
  16 C16            0.4833     8.6120    -0.1691 C.ar    
  17 C17            0.5668     9.9842    -0.0352 C.ar    
  18 C18            1.7790    10.5801     0.2575 C.ar    
  19 C19            2.9163     9.8013     0.4183 C.ar    
  20 C20            2.8355     8.4234     0.2904 C.ar    
  21 O21            4.1076    10.3888     0.7057 O.3     
  22 C22            1.8660    12.0777     0.4018 C.3     
  23 C23            0.4831    12.6927     0.1775 C.3     
  24 C24            2.3576    12.4269     1.8079 C.3     
  25 C25            2.8455    12.6338    -0.6337 C.3     
  26 C26           -0.8399     7.9658    -0.4893 C.3     
  27 C27           -1.8838     9.0500    -0.7642 C.3     
  28 C28           -0.6880     7.0786    -1.7265 C.3     
  29 C29           -1.2913     7.1125     0.6978 C.3     
  30 H30           -0.7373     1.8487     0.5185 H       
  31 H31           -0.6541    -0.6075     0.4751 H       
  32 H32            1.4411    -1.7671    -0.0860 H       
  33 H33            3.4719    -0.4945    -0.6025 H       
  34 H34            4.4827     1.6630    -0.8431 H       
  35 H35            4.6219     3.9865    -0.8523 H       
  36 H36            0.6697     5.9990    -0.1120 H       
  37 H37           -0.3167    10.5926    -0.1599 H       
  38 H38            3.7187     7.8153     0.4193 H       
  39 H39            4.2802    10.4857     1.6522 H       
  40 H40           -0.2147    12.2966     0.9152 H       
  41 H41            0.5460    13.7759     0.2818 H       
  42 H42            0.1329    12.4439    -0.8243 H       
  43 H43            3.3427    11.9887     1.9677 H       
  44 H44            2.4204    13.5101     1.9122 H       
  45 H45            1.6597    12.0308     2.5456 H       
  46 H46            2.4953    12.3849    -1.6355 H       
  47 H47            2.9084    13.7169    -0.5294 H       
  48 H48            3.8307    12.1956    -0.4740 H       
  49 H49           -1.5622     9.6579    -1.6099 H       
  50 H50           -2.8408     8.5826    -0.9958 H       
  51 H51           -1.9920     9.6821     0.1173 H       
  52 H52           -0.0178     6.2496    -1.4991 H       
  53 H53           -1.6638     6.6882    -2.0156 H       
  54 H54           -0.2743     7.6660    -2.5462 H       
  55 H55           -1.3203     7.7276     1.5972 H       
  56 H56           -2.2852     6.7113     0.4998 H       
  57 H57           -0.5899     6.2908     0.8421 H       
@<TRIPOS>BOND
   1    1    2 ar
   2    1    6 ar
   3    1   30 1
   4    2    3 ar
   5    2   31 1
   6    3    4 ar
   7    3   32 1
   8    4    5 ar
   9    4   33 1
  10    5    7 1
  11    5    6 ar
  12    6   10 1
  13    7    8 1
  14    7   34 1
  15    8    9 2
  16    8   35 1
  17    9   10 1
  18    9   12 1
  19   10   11 2
  20   12   13 2
  21   12   14 am
  22   14   15 1
  23   14   36 1
  24   15   16 ar
  25   15   20 ar
  26   16   17 ar
  27   16   26 1
  28   17   18 ar
  29   17   37 1
  30   18   19 ar
  31   18   22 1
  32   19   20 ar
  33   19   21 1
  34   20   38 1
  35   21   39 1
  36   22   23 1
  37   22   24 1
  38   22   25 1
  39   23   40 1
  40   23   41 1
  41   23   42 1
  42   24   43 1
  43   24   44 1
  44   24   45 1
  45   25   46 1
  46   25   47 1
  47   25   48 1
  48   26   27 1
  49   26   28 1
  50   26   29 1
  51   27   49 1
  52   27   50 1
  53   27   51 1
  54   28   52 1
  55   28   53 1
  56   28   54 1
  57   29   55 1
  58   29   56 1
  59   29   57 1

#	End of record

