#	Name: ASD01028630
#	Creating user name:	WinNT
#	Creation time:	15. 06. 2019 18:57

#	Modifying user name:	WinNT
#	Modification time:	15. 06. 2019 18:57

#	Program:	/corina/corina34_cracker 3.40 0067  02.08.2006

@<TRIPOS>MOLECULE
ASD01028630
  45   49    0    0    0
SMALL
NO_CHARGES


@<TRIPOS>ATOM
   1 C1            -0.0164     1.3578     0.0095 C.2     
   2 N2             0.0021    -0.0041     0.0020 N.pl3   
   3 C3             1.1499     2.0638     0.0022 C.2     
   4 C4             2.3924     1.3824    -0.0134 C.2     
   5 C5             2.4128     0.0237    -0.0209 C.2     
   6 C6             1.1932    -0.6874    -0.0131 C.2     
   7 N7             0.8954    -1.9761    -0.0176 N.2     
   8 N8            -0.3829    -2.1220    -0.0063 N.2     
   9 C9            -0.9726    -0.9545     0.0058 C.2     
  10 C10           -2.9612     0.5964     2.1033 C.ar    
  11 C11           -2.9407    -0.6326     1.4477 C.ar    
  12 C12           -3.3506    -1.7677     2.0784 C.ar    
  13 C13           -3.7996    -1.6997     3.4072 C.ar    
  14 C14           -3.8209    -0.4505     4.0764 C.ar    
  15 C15           -3.3898     0.6986     3.3912 C.ar    
  16 C16            1.1184     3.5414     0.0100 C.2     
  17 C17           -2.4590    -0.7068     0.0217 C.3     
  18 F18            3.5892    -0.6404    -0.0354 F       
  19 C19            1.5725     4.3685     1.0016 C.2     
  20 C20            1.3075     5.6628     0.5104 C.2     
  21 N21            0.7528     5.5109    -0.6588 N.2     
  22 O22            0.6431     4.3448    -0.9585 O.3     
  23 C23            1.6067     6.9676     1.2025 C.3     
  24 C24           -4.2317    -2.8498     4.0929 C.ar    
  25 C25           -4.6569    -2.7083     5.3876 C.ar    
  26 C26           -4.6516    -1.4448     5.9871 C.ar    
  27 N27           -4.2476    -0.3787     5.3413 N.ar    
  28 O28           -5.0832    -3.7927     6.0872 O.3     
  29 C29           -5.5120    -3.5696     7.4320 C.3     
  30 F30            2.8895     7.3995     0.8488 F       
  31 F31            0.6673     7.9283     0.8130 F       
  32 F32            1.5412     6.7862     2.5881 F       
  33 H33           -0.9608     1.8816     0.0168 H       
  34 H34            3.3175     1.9397    -0.0196 H       
  35 H35           -2.6272     1.4818     1.5829 H       
  36 H36           -3.3307    -2.7147     1.5596 H       
  37 H37           -3.3992     1.6593     3.8846 H       
  38 H38           -2.6761     0.2337    -0.4845 H       
  39 H39           -2.9687    -1.5220    -0.4920 H       
  40 H40            2.0274     4.0935     1.9417 H       
  41 H41           -4.2286    -3.8169     3.6121 H       
  42 H42           -4.9890    -1.3453     7.0082 H       
  43 H43           -6.3490    -2.8713     7.4353 H       
  44 H44           -5.8257    -4.5149     7.8748 H       
  45 H45           -4.6885    -3.1524     8.0114 H       
@<TRIPOS>BOND
   1    1    2 1
   2    1    3 2
   3    1   33 1
   4    2    6 1
   5    2    9 1
   6    3    4 1
   7    3   16 1
   8    4    5 2
   9    4   34 1
  10    5    6 1
  11    5   18 1
  12    6    7 2
  13    7    8 1
  14    8    9 2
  15    9   17 1
  16   10   11 ar
  17   10   15 ar
  18   10   35 1
  19   11   12 ar
  20   11   17 1
  21   12   13 ar
  22   12   36 1
  23   13   14 ar
  24   13   24 ar
  25   14   15 ar
  26   14   27 ar
  27   15   37 1
  28   16   19 2
  29   16   22 1
  30   17   38 1
  31   17   39 1
  32   19   20 1
  33   19   40 1
  34   20   21 2
  35   20   23 1
  36   21   22 1
  37   23   30 1
  38   23   31 1
  39   23   32 1
  40   24   25 ar
  41   24   41 1
  42   25   26 ar
  43   25   28 1
  44   26   27 ar
  45   26   42 1
  46   28   29 1
  47   29   43 1
  48   29   44 1
  49   29   45 1

#	End of record

