#	Name: ASD01901307
#	Creating user name:	WinNT
#	Creation time:	15. 06. 2019 19:53

#	Modifying user name:	WinNT
#	Modification time:	15. 06. 2019 19:53

#	Program:	/corina/corina34_cracker 3.40 0067  02.08.2006

@<TRIPOS>MOLECULE
ASD01901307
  38   41    0    0    0
SMALL
NO_CHARGES


@<TRIPOS>ATOM
   1 C1            -0.0166     1.3760     0.0096 C.ar    
   2 C2             0.0021    -0.0041     0.0020 C.ar    
   3 C3             1.2078    -0.6818    -0.0131 C.ar    
   4 C4             2.4006     0.0185    -0.0208 C.ar    
   5 C5             2.3935     1.3986    -0.0133 C.ar    
   6 C6             1.1819     2.0864     0.0020 C.ar    
   7 C7             1.1680     3.5705     0.0096 C.2     
   8 N8             0.6219     5.5974    -1.0711 N.2     
   9 C9             0.6315     4.2870    -1.0823 C.2     
  10 C10            1.6694     4.2628     1.0762 C.2     
  11 C11            1.1168     6.2850    -0.0308 C.2     
  12 N12            1.2125     7.5864     0.2017 N.2     
  13 N13            1.6413     5.6256     1.0510 N.pl3   
  14 C14            2.0561     6.5777     1.9428 C.2     
  15 C15            1.7806     7.7806     1.3956 C.2     
  16 C16            2.0666     9.1193     2.0257 C.3     
  17 O17            2.6790     8.9239     3.3020 O.3     
  18 C18            3.0037    10.0390     4.0077 C.ar    
  19 C19            2.7333    11.2954     3.4850 C.ar    
  20 C20            3.6010     9.9229     5.2544 C.ar    
  21 C21            3.9302    11.0580     5.9697 C.ar    
  22 C22            3.6644    12.3090     5.4443 C.ar    
  23 C23            3.0644    12.4273     4.2043 C.ar    
  24 H24           -0.9586     1.9042     0.0169 H       
  25 H25           -0.9264    -0.5558     0.0083 H       
  26 H26            1.2179    -1.7618    -0.0187 H       
  27 H27            3.3392    -0.5157    -0.0322 H       
  28 H28            3.3254     1.9445    -0.0189 H       
  29 H29            0.2278     3.7532    -1.9299 H       
  30 H30            2.0810     3.7384     1.9259 H       
  31 H31            2.5167     6.4000     2.9034 H       
  32 H32            2.7395     9.6870     1.3830 H       
  33 H33            1.1337     9.6689     2.1506 H       
  34 H34            2.2646    11.3883     2.5164 H       
  35 H35            3.8082     8.9460     5.6656 H       
  36 H36            4.3952    10.9681     6.9403 H       
  37 H37            3.9222    13.1952     6.0052 H       
  38 H38            2.8541    13.4056     3.7978 H       
@<TRIPOS>BOND
   1    1    2 ar
   2    1    6 ar
   3    1   24 1
   4    2    3 ar
   5    2   25 1
   6    3    4 ar
   7    3   26 1
   8    4    5 ar
   9    4   27 1
  10    5    6 ar
  11    5   28 1
  12    6    7 1
  13    7   10 2
  14    7    9 1
  15    8    9 2
  16    8   11 1
  17    9   29 1
  18   10   13 1
  19   10   30 1
  20   11   13 1
  21   11   12 2
  22   12   15 1
  23   13   14 1
  24   14   15 2
  25   14   31 1
  26   15   16 1
  27   16   17 1
  28   16   32 1
  29   16   33 1
  30   17   18 1
  31   18   20 ar
  32   18   19 ar
  33   19   23 ar
  34   19   34 1
  35   20   21 ar
  36   20   35 1
  37   21   22 ar
  38   21   36 1
  39   22   23 ar
  40   22   37 1
  41   23   38 1

#	End of record

