#	Name: ASD03330822
#	Creating user name:	WinNT
#	Creation time:	15. 06. 2019 20:38

#	Modifying user name:	WinNT
#	Modification time:	15. 06. 2019 20:38

#	Program:	/corina/corina34_cracker 3.40 0067  02.08.2006

@<TRIPOS>MOLECULE
ASD03330822
  63   65    0    0    0
SMALL
NO_CHARGES


@<TRIPOS>ATOM
   1 C1            -0.2643     1.1415     0.9528 C.2     
   2 N2            -0.2889    -0.1949     1.1684 N.pl3   
   3 C3             1.0415     1.5290     0.9787 C.2     
   4 N4             1.7936     0.4273     1.1911 N.2     
   5 C5             1.0026    -0.6141     1.3005 C.2     
   6 C6             1.4385    -2.0094     1.5297 C.ar    
   7 C7             1.5434     2.9037     0.8060 C.2     
   8 O8             0.7625     3.8173     0.6198 O.2     
   9 N9             2.8679     3.1485     0.8543 N.am    
  10 C10           -1.4970    -1.0200     1.2550 C.3     
  11 C11           -2.4267    -0.6750     0.0875 C.3     
  12 C12           -3.3323     0.4892     0.4768 C.3     
  13 N13           -2.6379     1.4192     1.3698 N.3     
  14 C14           -1.4667     2.0171     0.7119 C.3     
  15 C15            0.6070    -2.9000     2.2082 C.ar    
  16 C16            1.0203    -4.2021     2.4189 C.ar    
  17 C17            2.2574    -4.6214     1.9574 C.ar    
  18 C18            3.0853    -3.7409     1.2844 C.ar    
  19 C19            2.6807    -2.4407     1.0627 C.ar    
  20 C20            3.3669     4.5152     0.6826 C.3     
  21 C21            4.7080     4.6487     1.3569 C.2     
  22 C22            3.5136     4.8208    -0.8094 C.3     
  23 C23            2.1333     4.8134    -1.4696 C.3     
  24 C24            4.1564     6.1978    -0.9871 C.3     
  25 C25            4.3975     3.7570    -1.4634 C.3     
  26 O26            5.3019     3.6582     1.7271 O.2     
  27 N27            5.2474     5.8688     1.5486 N.am    
  28 C28            6.5825     5.9951     2.1384 C.3     
  29 C29           -3.5523     2.4579     1.8625 C.3     
  30 C30            4.4296    -4.2050     0.7860 C.3     
  31 F31            4.6120    -5.5510     1.1212 F       
  32 F32            4.4876    -4.0587    -0.6041 F       
  33 F33            5.4373    -3.4363     1.3783 F       
  34 F34            0.2170    -5.0668     3.0763 F       
  35 H35            3.4907     2.4198     1.0028 H       
  36 H36           -1.2229    -2.0737     1.2033 H       
  37 H37           -2.0070    -0.8213     2.1977 H       
  38 H38           -1.8299    -0.3955    -0.7807 H       
  39 H39           -3.0379    -1.5434    -0.1580 H       
  40 H40           -3.6396     1.0203    -0.4241 H       
  41 H41           -4.2169     0.1012     0.9818 H       
  42 H42           -1.2837     3.0090     1.1250 H       
  43 H43           -1.6513     2.0958    -0.3595 H       
  44 H44           -0.3573    -2.5731     2.5683 H       
  45 H45            2.5769    -5.6395     2.1240 H       
  46 H46            3.3284    -1.7550     0.5368 H       
  47 H47            2.6637     5.2176     1.1300 H       
  48 H48            1.5036     5.5712    -1.0036 H       
  49 H49            2.2378     5.0311    -2.5325 H       
  50 H50            1.6753     3.8324    -1.3430 H       
  51 H51            5.1265     6.2127    -0.4901 H       
  52 H52            4.2892     6.4024    -2.0494 H       
  53 H53            3.5116     6.9592    -0.5482 H       
  54 H54            3.9395     2.7761    -1.3369 H       
  55 H55            4.5020     3.9748    -2.5263 H       
  56 H56            5.3808     3.7624    -0.9931 H       
  57 H57            4.7517     6.6634     1.2959 H       
  58 H58            6.8478     7.0496     2.2145 H       
  59 H59            6.5845     5.5473     3.1321 H       
  60 H60            7.3084     5.4824     1.5074 H       
  61 H61           -4.3703     1.9912     2.4114 H       
  62 H62           -3.0110     3.1349     2.5234 H       
  63 H63           -3.9543     3.0183     1.0184 H       
@<TRIPOS>BOND
   1    1    2 1
   2    1    3 2
   3    1   14 1
   4    2   10 1
   5    2    5 1
   6    3    4 1
   7    3    7 1
   8    4    5 2
   9    5    6 1
  10    6   15 ar
  11    6   19 ar
  12    7    8 2
  13    7    9 am
  14    9   20 1
  15    9   35 1
  16   10   11 1
  17   10   36 1
  18   10   37 1
  19   11   12 1
  20   11   38 1
  21   11   39 1
  22   12   13 1
  23   12   40 1
  24   12   41 1
  25   13   14 1
  26   13   29 1
  27   14   42 1
  28   14   43 1
  29   15   16 ar
  30   15   44 1
  31   16   17 ar
  32   16   34 1
  33   17   18 ar
  34   17   45 1
  35   18   19 ar
  36   18   30 1
  37   19   46 1
  38   20   21 1
  39   20   22 1
  40   20   47 1
  41   21   26 2
  42   21   27 am
  43   22   23 1
  44   22   24 1
  45   22   25 1
  46   23   48 1
  47   23   49 1
  48   23   50 1
  49   24   51 1
  50   24   52 1
  51   24   53 1
  52   25   54 1
  53   25   55 1
  54   25   56 1
  55   27   28 1
  56   27   57 1
  57   28   58 1
  58   28   59 1
  59   28   60 1
  60   29   61 1
  61   29   62 1
  62   29   63 1
  63   30   31 1
  64   30   32 1
  65   30   33 1

#	End of record

