#	Name: ASD07931747
#	Creating user name:	WinNT
#	Creation time:	15. 06. 2019 21:13

#	Modifying user name:	WinNT
#	Modification time:	15. 06. 2019 21:13

#	Program:	/corina/corina34_cracker 3.40 0067  02.08.2006

@<TRIPOS>MOLECULE
ASD07931747
  60   64    0    0    0
SMALL
NO_CHARGES


@<TRIPOS>ATOM
   1 C1            -0.0165     1.3638     0.0095 C.2     
   2 C2             0.0021    -0.0041     0.0020 C.2     
   3 C3             1.2948    -0.6930    -0.0137 C.2     
   4 N4             2.4269     0.0320    -0.0184 N.am    
   5 C5             2.3819     1.4078    -0.0128 C.2     
   6 C6             1.1929     2.0698     0.0018 C.2     
   7 C7             3.7400    -0.6270    -0.0278 C.3     
   8 C8             4.6598     0.1584    -0.9746 C.3     
   9 N9             4.7714     1.5376    -0.4790 N.am    
  10 C10            3.6569     2.1587    -0.0242 C.2     
  11 C11            6.0637     2.2276    -0.4769 C.3     
  12 O12            1.3435    -1.9113    -0.0219 O.2     
  13 N13           -1.1914    -0.7315     0.0096 N.pl3   
  14 C14           -2.1398    -0.7526    -0.9807 C.2     
  15 C15           -1.6287    -1.5563     0.9973 C.2     
  16 N16           -2.7818    -2.0540     0.6427 N.2     
  17 C17           -3.1190    -1.5782    -0.5654 C.2     
  18 C18           -4.3767    -1.9103    -1.3263 C.3     
  19 O19            3.7030     3.3092     0.3661 O.2     
  20 C20            6.2496     2.9662    -1.8038 C.3     
  21 C21            7.6576     3.5979    -1.8750 C.3     
  22 C22            7.4292     4.9435    -2.5993 C.3     
  23 C23            5.9103     4.9656    -2.8800 C.3     
  24 O24            5.3390     4.0840    -1.8889 O.3     
  25 C25            5.3668     6.3616    -2.7159 C.ar    
  26 C26            5.1410     7.1505    -3.8284 C.ar    
  27 C27            6.0446    -0.4916    -1.0021 C.3     
  28 C28            4.6425     8.4310    -3.6779 C.ar    
  29 C29            4.3694     8.9225    -2.4151 C.ar    
  30 C30            4.5944     8.1333    -1.3027 C.ar    
  31 C31            5.0888     6.8512    -1.4534 C.ar    
  32 C32            3.8269    10.3188    -2.2510 C.3     
  33 F33            2.4287    10.2828    -2.2841 F       
  34 F34            4.2509    10.8429    -1.0251 F       
  35 F35            4.2973    11.1272    -3.2915 F       
  36 H36           -0.9567     1.8952     0.0169 H       
  37 H37            1.1819     3.1497     0.0071 H       
  38 H38            4.1596    -0.6261     0.9781 H       
  39 H39            3.6349    -1.6522    -0.3828 H       
  40 H40            4.2344     0.1631    -1.9781 H       
  41 H41            6.0920     2.9435     0.3446 H       
  42 H42            6.8645     1.4988    -0.3514 H       
  43 H43           -2.1074    -0.2110    -1.9146 H       
  44 H44           -1.1089    -1.7651     1.9207 H       
  45 H45           -5.1590    -1.1982    -1.0636 H       
  46 H46           -4.1791    -1.8545    -2.3968 H       
  47 H47           -4.7016    -2.9183    -1.0689 H       
  48 H48            6.0964     2.2853    -2.6410 H       
  49 H49            8.0520     3.7657    -0.8728 H       
  50 H50            8.3319     2.9639    -2.4507 H       
  51 H51            7.7108     5.7765    -1.9552 H       
  52 H52            7.9907     4.9747    -3.5330 H       
  53 H53            5.7044     4.5928    -3.8833 H       
  54 H54            5.3543     6.7666    -4.8150 H       
  55 H55            5.9566    -1.5197    -1.3534 H       
  56 H56            6.6951     0.0677    -1.6746 H       
  57 H57            6.4688    -0.4857     0.0020 H       
  58 H58            4.4667     9.0477    -4.5470 H       
  59 H59            4.3813     8.5173    -0.3160 H       
  60 H60            5.2645     6.2345    -0.5844 H       
@<TRIPOS>BOND
   1    1    2 2
   2    1    6 1
   3    1   36 1
   4    2    3 1
   5    2   13 1
   6    3    4 am
   7    3   12 2
   8    4    5 1
   9    4    7 1
  10    5    6 2
  11    5   10 1
  12    6   37 1
  13    7    8 1
  14    7   38 1
  15    7   39 1
  16    8    9 1
  17    8   27 1
  18    8   40 1
  19    9   10 am
  20    9   11 1
  21   10   19 2
  22   11   20 1
  23   11   41 1
  24   11   42 1
  25   13   14 1
  26   13   15 1
  27   14   17 2
  28   14   43 1
  29   15   16 2
  30   15   44 1
  31   16   17 1
  32   17   18 1
  33   18   45 1
  34   18   46 1
  35   18   47 1
  36   20   21 1
  37   20   24 1
  38   20   48 1
  39   21   22 1
  40   21   49 1
  41   21   50 1
  42   22   23 1
  43   22   51 1
  44   22   52 1
  45   23   24 1
  46   23   25 1
  47   23   53 1
  48   25   26 ar
  49   25   31 ar
  50   26   28 ar
  51   26   54 1
  52   27   55 1
  53   27   56 1
  54   27   57 1
  55   28   29 ar
  56   28   58 1
  57   29   30 ar
  58   29   32 1
  59   30   31 ar
  60   30   59 1
  61   31   60 1
  62   32   33 1
  63   32   34 1
  64   32   35 1

#	End of record

