#	Name: ASD01914934
#	Creating user name:	WinNT
#	Creation time:	15. 06. 2019 20:04

#	Modifying user name:	WinNT
#	Modification time:	15. 06. 2019 20:04

#	Program:	/corina/corina34_cracker 3.40 0067  02.08.2006

@<TRIPOS>MOLECULE
ASD01914934
  51   54    0    0    0
SMALL
NO_CHARGES


@<TRIPOS>ATOM
   1 C1            -0.0158     1.3120     0.0093 C.2     
   2 N2             0.0021    -0.0041     0.0020 N.2     
   3 C3             1.3183     1.7636    -0.0011 C.2     
   4 C4             2.1227     0.6785    -0.0146 C.2     
   5 N5             1.3391    -0.4213    -0.0130 N.pl3   
   6 C6            -1.2277     2.1688     0.0199 C.ar    
   7 C7            -2.4942     1.5876     0.0235 C.ar    
   8 C8            -3.6181     2.3878     0.0339 C.ar    
   9 C9            -3.4888     3.7673     0.0403 C.ar    
  10 C10           -2.2317     4.3491     0.0367 C.ar    
  11 C11           -1.1022     3.5562     0.0321 C.ar    
  12 C12            3.6296     0.6927    -0.0293 C.3     
  13 C13            1.8063    -1.8097    -0.0245 C.3     
  14 C14            1.9797    -2.2931     1.3923 C.2     
  15 N15            2.4045    -3.5502     1.6282 N.am    
  16 O16            1.7369    -1.5510     2.3203 O.2     
  17 C17            2.5801    -4.0411     3.0034 C.3     
  18 C18            1.5895    -5.1843     3.2583 C.3     
  19 C19            1.6097    -6.1179     2.0757 C.2     
  20 C20            2.0989    -5.8066     0.8601 C.2     
  21 C21            2.6992    -4.4698     0.5143 C.3     
  22 F22           -4.5919     4.5472     0.0495 F       
  23 C23            4.1525     0.8152     1.4033 C.3     
  24 C24           -4.9883     1.7604     0.0378 C.3     
  25 O25            1.1633    -7.3812     2.0110 O.3     
  26 C26            1.3795    -7.8253     0.7631 C.2     
  27 N27            1.9437    -6.8744     0.0693 N.2     
  28 C28            1.0288    -9.1972     0.2474 C.3     
  29 H29            1.6408     2.7944     0.0011 H       
  30 H30           -2.5959     0.5124     0.0179 H       
  31 H31           -2.1353     5.4248     0.0417 H       
  32 H32           -0.1224     4.0106     0.0294 H       
  33 H33            3.9973    -0.2327    -0.4724 H       
  34 H34            3.9792     1.5412    -0.6175 H       
  35 H35            1.0740    -2.4353    -0.5348 H       
  36 H36            2.7609    -1.8675    -0.5475 H       
  37 H37            3.5990    -4.4060     3.1328 H       
  38 H38            2.3899    -3.2304     3.7068 H       
  39 H39            1.8816    -5.7272     4.1572 H       
  40 H40            0.5864    -4.7771     3.3850 H       
  41 H41            2.2585    -4.0929    -0.4086 H       
  42 H42            3.7786    -4.5667     0.3984 H       
  43 H43            5.2424     0.8255     1.3926 H       
  44 H44            3.7847     1.7407     1.8464 H       
  45 H45            3.8029    -0.0332     1.9915 H       
  46 H46           -5.3131     1.6036     1.0664 H       
  47 H47           -5.6918     2.4212    -0.4686 H       
  48 H48           -4.9510     0.8028    -0.4814 H       
  49 H49            0.0177    -9.1849    -0.1596 H       
  50 H50            1.7321    -9.4819    -0.5353 H       
  51 H51            1.0831    -9.9171     1.0640 H       
@<TRIPOS>BOND
   1    1    2 2
   2    1    3 1
   3    1    6 1
   4    2    5 1
   5    3    4 2
   6    3   29 1
   7    4    5 1
   8    4   12 1
   9    5   13 1
  10    6    7 ar
  11    6   11 ar
  12    7    8 ar
  13    7   30 1
  14    8    9 ar
  15    8   24 1
  16    9   10 ar
  17    9   22 1
  18   10   11 ar
  19   10   31 1
  20   11   32 1
  21   12   23 1
  22   12   33 1
  23   12   34 1
  24   13   14 1
  25   13   35 1
  26   13   36 1
  27   14   15 am
  28   14   16 2
  29   15   17 1
  30   15   21 1
  31   17   18 1
  32   17   37 1
  33   17   38 1
  34   18   19 1
  35   18   39 1
  36   18   40 1
  37   19   20 2
  38   19   25 1
  39   20   21 1
  40   20   27 1
  41   21   41 1
  42   21   42 1
  43   23   43 1
  44   23   44 1
  45   23   45 1
  46   24   46 1
  47   24   47 1
  48   24   48 1
  49   25   26 1
  50   26   27 2
  51   26   28 1
  52   28   49 1
  53   28   50 1
  54   28   51 1

#	End of record

