#	Name: ASD01150695
#	Creating user name:	WinNT
#	Creation time:	15. 06. 2019 19:04

#	Modifying user name:	WinNT
#	Modification time:	15. 06. 2019 19:04

#	Program:	/corina/corina34_cracker 3.40 0067  02.08.2006

@<TRIPOS>MOLECULE
ASD01150695
  43   47    0    0    0
SMALL
NO_CHARGES


@<TRIPOS>ATOM
   1 C1            -0.0814     1.3454    -0.0336 C.2     
   2 O2            -0.3227     1.0769     1.1247 O.2     
   3 C3             3.2680     3.7256    -0.9963 C.ar    
   4 C4             3.4510     2.3460    -0.9339 C.ar    
   5 C5             2.3413     1.5227    -0.6108 C.ar    
   6 C6             1.1008     2.1447    -0.3698 C.ar    
   7 C7             1.0158     3.5413    -0.4574 C.ar    
   8 N8             2.0651     4.2641    -0.7573 N.ar    
   9 C9             4.8300     1.9435    -1.2266 C.2     
  10 C10            5.6408     2.9571    -1.4933 C.2     
  11 S11            4.7891     4.4984    -1.4172 S.3     
  12 C12            7.0507     2.4510    -1.7862 C.3     
  13 C13            6.8756     0.9507    -2.0942 C.3     
  14 C14            5.5930     0.6212    -1.3053 C.3     
  15 C15            2.4831     0.0528    -0.5302 C.ar    
  16 C16            2.3042    -0.6028     0.6891 C.ar    
  17 C17            2.4380    -1.9742     0.7574 C.ar    
  18 C18            2.7492    -2.6994    -0.3791 C.ar    
  19 C19            2.9284    -2.0556    -1.5907 C.ar    
  20 C20            2.7909    -0.6855    -1.6741 C.ar    
  21 C21           -0.3046     4.2213    -0.2023 C.3     
  22 C22           -0.9933     0.8522    -1.1272 C.3     
  23 C23           -1.8389    -0.3892    -0.8357 C.3     
  24 C24           -2.5010     0.9884    -0.9049 C.3     
  25 H25            7.4680     2.9693    -2.6496 H       
  26 H26            7.6913     2.5871    -0.9149 H       
  27 H27            6.7310     0.7852    -3.1619 H       
  28 H28            7.7223     0.3739    -1.7221 H       
  29 H29            5.8434     0.2678    -0.3051 H       
  30 H30            5.0030    -0.1260    -1.8359 H       
  31 H31            2.0619    -0.0378     1.5770 H       
  32 H32            2.2998    -2.4827     1.7001 H       
  33 H33            2.8532    -3.7728    -0.3201 H       
  34 H34            3.1715    -2.6275    -2.4740 H       
  35 H35            2.9262    -0.1847    -2.6214 H       
  36 H36           -0.4236     4.3942     0.8673 H       
  37 H37           -0.3300     5.1750    -0.7296 H       
  38 H38           -1.1153     3.5866    -0.5602 H       
  39 H39           -0.6205     0.9799    -2.1435 H       
  40 H40           -2.0227    -1.0780    -1.6602 H       
  41 H41           -1.7355    -0.8491     0.1471 H       
  42 H42           -2.8332     1.4348     0.0323 H       
  43 H43           -3.1203     1.2059    -1.7751 H       
@<TRIPOS>BOND
   1    1    2 2
   2    1    6 1
   3    1   22 1
   4    3    4 ar
   5    3    8 ar
   6    3   11 1
   7    4    5 ar
   8    4    9 1
   9    5    6 ar
  10    5   15 1
  11    6    7 ar
  12    7    8 ar
  13    7   21 1
  14    9   10 2
  15    9   14 1
  16   10   11 1
  17   10   12 1
  18   12   13 1
  19   12   25 1
  20   12   26 1
  21   13   14 1
  22   13   27 1
  23   13   28 1
  24   14   29 1
  25   14   30 1
  26   15   16 ar
  27   15   20 ar
  28   16   17 ar
  29   16   31 1
  30   17   18 ar
  31   17   32 1
  32   18   19 ar
  33   18   33 1
  34   19   20 ar
  35   19   34 1
  36   20   35 1
  37   21   36 1
  38   21   37 1
  39   21   38 1
  40   22   23 1
  41   22   24 1
  42   22   39 1
  43   23   24 1
  44   23   40 1
  45   23   41 1
  46   24   42 1
  47   24   43 1

#	End of record

