#	Name: ASD03430285
#	Creating user name:	WinNT
#	Creation time:	15. 06. 2019 20:40

#	Modifying user name:	WinNT
#	Modification time:	15. 06. 2019 20:40

#	Program:	/corina/corina34_cracker 3.40 0067  02.08.2006

@<TRIPOS>MOLECULE
ASD03430285
  53   57    0    0    0
SMALL
NO_CHARGES


@<TRIPOS>ATOM
   1 C1             0.0585     1.4291    -0.6118 C.ar    
   2 C2             0.1036     0.0646    -0.8290 C.ar    
   3 C3             1.2801    -0.6283    -0.6432 C.ar    
   4 C4             2.4340     0.0311    -0.2261 C.ar    
   5 C5             2.3852     1.4045    -0.0133 C.ar    
   6 C6             1.2033     2.0995    -0.2054 C.ar    
   7 O7             3.4731    -0.8382    -0.0775 O.3     
   8 C8             1.6528    -2.0767    -0.8142 C.3     
   9 C9             3.1874    -2.0490    -0.8038 C.3     
  10 C10            0.3263    -3.9078    -0.3579 C.ar    
  11 C11            1.1011    -2.9418     0.2798 C.ar    
  12 C12            1.1133    -2.6560    -2.0903 C.2     
  13 N13            0.3536    -3.7133    -1.7409 N.am    
  14 O14            1.3201    -2.2516    -3.2149 O.2     
  15 C15            1.2239    -2.9354     1.6509 C.ar    
  16 C16            0.5746    -3.8936     2.4095 C.ar    
  17 C17           -0.1975    -4.8571     1.7872 C.ar    
  18 C18           -0.3236    -4.8678     0.4133 C.ar    
  19 C19           -0.3599    -4.5601    -2.7001 C.3     
  20 C20           -1.7618    -3.9943    -2.9358 C.3     
  21 C21           -2.5210    -4.8785    -3.9439 C.3     
  22 C22           -3.7812    -5.3385    -3.1714 C.3     
  23 C23           -3.8852    -4.2696    -2.0538 C.3     
  24 O24           -2.5079    -4.0096    -1.7072 O.3     
  25 O25            1.1644     3.4416     0.0043 O.3     
  26 C26           -0.1114     4.0773    -0.0963 C.3     
  27 C27           -0.1091     5.3603     0.7372 C.3     
  28 C28           -0.3963     4.4204    -1.5598 C.3     
  29 H29           -0.8630     1.9719    -0.7621 H       
  30 H30           -0.7861    -0.4599    -1.1448 H       
  31 H31            3.2731     1.9313     0.3038 H       
  32 H32            3.5804    -1.9933    -1.8189 H       
  33 H33            3.5866    -2.9177    -0.2802 H       
  34 H34            1.8277    -2.1821     2.1351 H       
  35 H35            0.6711    -3.8891     3.4852 H       
  36 H36           -0.7040    -5.6049     2.3792 H       
  37 H37           -0.9286    -5.6235    -0.0657 H       
  38 H38            0.1866    -4.5812    -3.6430 H       
  39 H39           -0.4386    -5.5721    -2.3030 H       
  40 H40           -1.6909    -2.9753    -3.3163 H       
  41 H41           -2.8029    -4.2990    -4.8231 H       
  42 H42           -1.9144    -5.7375    -4.2305 H       
  43 H43           -4.6613    -5.3161    -3.8141 H       
  44 H44           -3.6363    -6.3320    -2.7471 H       
  45 H45           -4.3634    -3.3655    -2.4306 H       
  46 H46           -4.4292    -4.6635    -1.1953 H       
  47 H47           -0.8833     3.4036     0.2759 H       
  48 H48            0.6628     6.0340     0.3650 H       
  49 H49           -1.0823     5.8452     0.6605 H       
  50 H50            0.0938     5.1159     1.7799 H       
  51 H51           -1.3696     4.9052    -1.6366 H       
  52 H52            0.3755     5.0940    -1.9320 H       
  53 H53           -0.3980     3.5063    -2.1536 H       
@<TRIPOS>BOND
   1    1    2 ar
   2    1    6 ar
   3    1   29 1
   4    2    3 ar
   5    2   30 1
   6    3    4 ar
   7    3    8 1
   8    4    5 ar
   9    4    7 1
  10    5    6 ar
  11    5   31 1
  12    6   25 1
  13    7    9 1
  14    8    9 1
  15    8   11 1
  16    8   12 1
  17    9   32 1
  18    9   33 1
  19   10   11 ar
  20   10   13 1
  21   10   18 ar
  22   11   15 ar
  23   12   13 am
  24   12   14 2
  25   13   19 1
  26   15   16 ar
  27   15   34 1
  28   16   17 ar
  29   16   35 1
  30   17   18 ar
  31   17   36 1
  32   18   37 1
  33   19   20 1
  34   19   38 1
  35   19   39 1
  36   20   21 1
  37   20   24 1
  38   20   40 1
  39   21   22 1
  40   21   41 1
  41   21   42 1
  42   22   23 1
  43   22   43 1
  44   22   44 1
  45   23   24 1
  46   23   45 1
  47   23   46 1
  48   25   26 1
  49   26   27 1
  50   26   28 1
  51   26   47 1
  52   27   48 1
  53   27   49 1
  54   27   50 1
  55   28   51 1
  56   28   52 1
  57   28   53 1

#	End of record

