#	Name: ASD01910188
#	Creating user name:	WinNT
#	Creation time:	15. 06. 2019 19:55

#	Modifying user name:	WinNT
#	Modification time:	15. 06. 2019 19:55

#	Program:	/corina/corina34_cracker 3.40 0067  02.08.2006

@<TRIPOS>MOLECULE
ASD01910188
  43   45    0    0    0
SMALL
NO_CHARGES


@<TRIPOS>ATOM
   1 C1            -0.2183     1.3729     0.0955 C.ar    
   2 C2             0.0378     0.0355     0.3283 C.ar    
   3 C3             1.3452    -0.4349     0.3191 C.ar    
   4 C4             2.3939     0.4399     0.0759 C.ar    
   5 C5             2.1334     1.7830    -0.1576 C.ar    
   6 C6             0.8240     2.2470    -0.1471 C.ar    
   7 N7             3.1878     2.6683    -0.4028 N.am    
   8 C8             4.2620     2.2586    -1.1061 C.2     
   9 C9             5.3292     3.2208    -1.4530 C.ar    
  10 N10            1.6037    -1.7896     0.5555 N.am    
  11 C11            0.7259    -2.7252     0.1424 C.2     
  12 C12            6.4429     2.7996    -2.1813 C.ar    
  13 C13            7.4356     3.7025    -2.5026 C.ar    
  14 C14            7.3296     5.0229    -2.1044 C.ar    
  15 C15            6.2274     5.4480    -1.3815 C.ar    
  16 C16            5.2246     4.5558    -1.0587 C.ar    
  17 O17           -0.2410    -2.4017    -0.5145 O.2     
  18 O18            4.3533     1.0977    -1.4552 O.2     
  19 C19            0.9458    -4.1734     0.4967 C.3     
  20 Cl20           6.1035     7.1072    -0.8862 Cl      
  21 C21           -0.1862    -5.0366    -0.0873 C.3     
  22 C22            0.4774    -6.0370    -1.0562 C.3     
  23 C23            1.9402    -6.1362    -0.5567 C.3     
  24 C24            2.2579    -4.6792    -0.1378 C.3     
  25 H25           -1.2357     1.7352     0.0987 H       
  26 H26           -0.7790    -0.6450     0.5180 H       
  27 H27            3.4110     0.0768     0.0686 H       
  28 H28            0.6205     3.2919    -0.3291 H       
  29 H29            3.1461     3.5772    -0.0667 H       
  30 H30            2.4146    -2.0554     1.0166 H       
  31 H31            6.5276     1.7689    -2.4924 H       
  32 H32            8.2977     3.3773    -3.0661 H       
  33 H33            8.1098     5.7252    -2.3579 H       
  34 H34            4.3653     4.8879    -0.4949 H       
  35 H35            0.9844    -4.2909     1.5796 H       
  36 H36           -0.6965    -5.5737     0.7122 H       
  37 H37           -0.8947    -4.4081    -0.6269 H       
  38 H38           -0.0129    -7.0086    -0.9962 H       
  39 H39            0.4479    -5.6561    -2.0770 H       
  40 H40            2.0116    -6.8083     0.2985 H       
  41 H41            2.6016    -6.4601    -1.3602 H       
  42 H42            2.5159    -4.0791    -1.0103 H       
  43 H43            3.0669    -4.6600     0.5924 H       
@<TRIPOS>BOND
   1    1    2 ar
   2    1    6 ar
   3    1   25 1
   4    2    3 ar
   5    2   26 1
   6    3    4 ar
   7    3   10 1
   8    4    5 ar
   9    4   27 1
  10    5    6 ar
  11    5    7 1
  12    6   28 1
  13    7    8 am
  14    7   29 1
  15    8    9 1
  16    8   18 2
  17    9   12 ar
  18    9   16 ar
  19   10   11 am
  20   10   30 1
  21   11   17 2
  22   11   19 1
  23   12   13 ar
  24   12   31 1
  25   13   14 ar
  26   13   32 1
  27   14   15 ar
  28   14   33 1
  29   15   16 ar
  30   15   20 1
  31   16   34 1
  32   19   21 1
  33   19   24 1
  34   19   35 1
  35   21   22 1
  36   21   36 1
  37   21   37 1
  38   22   23 1
  39   22   38 1
  40   22   39 1
  41   23   24 1
  42   23   40 1
  43   23   41 1
  44   24   42 1
  45   24   43 1

#	End of record

