#	Name: ASD03730039
#	Creating user name:	WinNT
#	Creation time:	15. 06. 2019 20:43

#	Modifying user name:	WinNT
#	Modification time:	15. 06. 2019 20:43

#	Program:	/corina/corina34_cracker 3.40 0067  02.08.2006

@<TRIPOS>MOLECULE
ASD03730039
  34   37    0    0    0
SMALL
NO_CHARGES


@<TRIPOS>ATOM
   1 C1            -0.0184     1.5028     0.0103 C.2     
   2 C2             0.0021    -0.0041     0.0020 C.3     
   3 O3             1.0291     2.1267     0.0037 O.co2   
   4 O4            -1.0824     2.0980     0.0186 O.co2   
   5 O5             5.6626    -1.2147     1.3845 O.3     
   6 C6             4.5874    -0.2799     1.1735 C.3     
   7 C7             3.4662    -1.1774     0.6321 C.3     
   8 C8             3.8248    -2.5376     1.1675 C.ar    
   9 C9             5.1456    -2.4575     1.6004 C.ar    
  10 C10            5.7395    -3.5829     2.1633 C.ar    
  11 C11            5.0299    -4.7623     2.2797 C.ar    
  12 C12            3.7182    -4.8340     1.8364 C.ar    
  13 C13            3.1198    -3.7163     1.2799 C.ar    
  14 N14            1.3897    -0.4735    -0.0138 N.am    
  15 C15            2.1130    -0.7211     1.0965 C.2     
  16 C16            3.4020    -1.1519    -0.8662 C.ar    
  17 C17            4.3036    -1.4548    -1.8631 C.ar    
  18 C18            3.9364    -1.3271    -3.1919 C.ar    
  19 C19            2.6632    -0.8956    -3.5154 C.ar    
  20 C20            1.7572    -0.5916    -2.5208 C.ar    
  21 C21            2.1175    -0.7168    -1.1812 C.ar    
  22 O22            1.7431    -0.5996     2.2452 O.2     
  23 F23            5.6160    -5.8496     2.8269 F       
  24 F24            3.0268    -5.9894     1.9472 F       
  25 Br25           6.0438    -2.0445    -1.4161 Br      
  26 H26           -0.4983    -0.3791     0.8948 H       
  27 H27           -0.5153    -0.3696    -0.8850 H       
  28 H28            4.2902     0.1864     2.1128 H       
  29 H29            4.8688     0.4739     0.4381 H       
  30 H30            6.7610    -3.5341     2.5107 H       
  31 H31            2.0982    -3.7683     0.9335 H       
  32 H32            4.6428    -1.5637    -3.9738 H       
  33 H33            2.3767    -0.7959    -4.5519 H       
  34 H34            0.7648    -0.2545    -2.7817 H       
@<TRIPOS>BOND
   1    1    2 1
   2    1    3 ar
   3    1    4 ar
   4    2   14 1
   5    2   26 1
   6    2   27 1
   7    5    6 1
   8    5    9 1
   9    6    7 1
  10    6   28 1
  11    6   29 1
  12    7    8 1
  13    7   15 1
  14    7   16 1
  15    8    9 ar
  16    8   13 ar
  17    9   10 ar
  18   10   11 ar
  19   10   30 1
  20   11   12 ar
  21   11   23 1
  22   12   13 ar
  23   12   24 1
  24   13   31 1
  25   14   15 am
  26   14   21 1
  27   15   22 2
  28   16   17 ar
  29   16   21 ar
  30   17   18 ar
  31   17   25 1
  32   18   19 ar
  33   18   32 1
  34   19   20 ar
  35   19   33 1
  36   20   21 ar
  37   20   34 1

#	End of record

