#	Name: ASD08170059
#	Creating user name:	WinNT
#	Creation time:	15. 06. 2019 21:17

#	Modifying user name:	WinNT
#	Modification time:	15. 06. 2019 21:17

#	Program:	/corina/corina34_cracker 3.40 0067  02.08.2006

@<TRIPOS>MOLECULE
ASD08170059
  53   54    0    0    0
SMALL
NO_CHARGES


@<TRIPOS>ATOM
   1 N1            -0.0150     1.2583     0.0090 N.2     
   2 N2             0.0021    -0.0041     0.0020 N.2     
   3 C3             1.1271     1.8769     0.0014 C.2     
   4 S4             2.3826     0.7116    -0.0169 S.3     
   5 C5             1.1681    -0.5677    -0.0121 C.2     
   6 C6             1.4387    -2.0502    -0.0227 C.3     
   7 C7             1.5165    -2.5442    -1.4687 C.3     
   8 C8             2.1699    -6.2152    -3.4347 C.3     
   9 C9             2.2167    -6.5408    -4.9053 C.2     
  10 N10            3.2694    -6.5184    -5.6596 N.2     
  11 S11            0.8491    -7.0282    -5.9071 S.3     
  12 C12            1.9000    -7.1354    -7.2557 C.2     
  13 N13            3.1017    -6.8250    -6.8728 N.2     
  14 N14            1.5289    -7.4992    -8.5457 N.am    
  15 C15            2.4537    -7.5464    -9.5250 C.2     
  16 O16            3.6096    -7.2716    -9.2812 O.2     
  17 C17            2.0516    -7.9407   -10.9228 C.3     
  18 N18            1.3017     3.2566     0.0067 N.am    
  19 C19            0.2284     4.0717     0.0214 C.2     
  20 C20            0.4176     5.5667     0.0272 C.3     
  21 O21           -0.8897     3.6019     0.0299 O.2     
  22 C22            1.8986    -4.7206    -3.2516 C.3     
  23 O23            0.7394    -7.4464   -11.1982 O.3     
  24 O24            1.5647     5.9047    -0.7552 O.3     
  25 C25            3.0418    -7.3450   -11.9255 C.3     
  26 S26            1.8422    -4.3286    -1.4814 S.3     
  27 C27           -0.8213     6.2399    -0.5669 C.3     
  28 C28            0.6205     6.0496     1.4647 C.3     
  29 F29           -1.9443     5.9090     0.1990 F       
  30 F30           -0.6456     7.6278    -0.5616 F       
  31 F31           -1.0067     5.7984    -1.8814 F       
  32 C32            2.0580    -9.4658   -11.0443 C.3     
  33 F33            4.3265    -7.8289   -11.6559 F       
  34 F34            2.6685    -7.7109   -13.2232 F       
  35 F35            3.0360    -5.9504   -11.8144 F       
  36 H36            2.3843    -2.2506     0.4811 H       
  37 H37            0.6334    -2.5702     0.4961 H       
  38 H38            0.5709    -2.3438    -1.9724 H       
  39 H39            2.3218    -2.0242    -1.9874 H       
  40 H40            1.3741    -6.7896    -2.9605 H       
  41 H41            3.1250    -6.4700    -2.9755 H       
  42 H42            0.6045    -7.7190    -8.7407 H       
  43 H43            2.1959     3.6323    -0.0001 H       
  44 H44            2.6943    -4.1461    -3.7258 H       
  45 H45            0.9434    -4.4658    -3.7108 H       
  46 H46            0.6611    -6.4844   -11.1394 H       
  47 H47            1.5055     5.6282    -1.6799 H       
  48 H48            1.5030     5.5700     1.8880 H       
  49 H49            0.7573     7.1310     1.4689 H       
  50 H50           -0.2545     5.7918     2.0615 H       
  51 H51            1.3525    -9.8902   -10.3300 H       
  52 H52            1.7672    -9.7510   -12.0554 H       
  53 H53            3.0589    -9.8428   -10.8342 H       
@<TRIPOS>BOND
   1    1    2 1
   2    1    3 2
   3    2    5 2
   4    3    4 1
   5    3   18 1
   6    4    5 1
   7    5    6 1
   8    6    7 1
   9    6   36 1
  10    6   37 1
  11    7   26 1
  12    7   38 1
  13    7   39 1
  14    8    9 1
  15    8   22 1
  16    8   40 1
  17    8   41 1
  18    9   10 2
  19    9   11 1
  20   10   13 1
  21   11   12 1
  22   12   13 2
  23   12   14 1
  24   14   15 am
  25   14   42 1
  26   15   16 2
  27   15   17 1
  28   17   23 1
  29   17   25 1
  30   17   32 1
  31   18   19 am
  32   18   43 1
  33   19   20 1
  34   19   21 2
  35   20   24 1
  36   20   27 1
  37   20   28 1
  38   22   26 1
  39   22   44 1
  40   22   45 1
  41   23   46 1
  42   24   47 1
  43   25   33 1
  44   25   34 1
  45   25   35 1
  46   27   29 1
  47   27   30 1
  48   27   31 1
  49   28   48 1
  50   28   49 1
  51   28   50 1
  52   32   51 1
  53   32   52 1
  54   32   53 1

#	End of record

