#	Name: ASD03430233
#	Creating user name:	WinNT
#	Creation time:	15. 06. 2019 20:40

#	Modifying user name:	WinNT
#	Modification time:	15. 06. 2019 20:40

#	Program:	/corina/corina34_cracker 3.40 0067  02.08.2006

@<TRIPOS>MOLECULE
ASD03430233
  51   56    0    0    0
SMALL
NO_CHARGES


@<TRIPOS>ATOM
   1 C1            -0.0167     1.3825     0.0096 C.ar    
   2 C2             0.0021    -0.0041     0.0020 C.ar    
   3 C3             1.2024    -0.6818    -0.0148 C.ar    
   4 C4             2.4086     0.0132    -0.0143 C.ar    
   5 C5             2.3860     1.4037    -0.0116 C.ar    
   6 C6             1.1812     2.0870     0.0020 C.ar    
   7 O7             3.4710    -0.8417    -0.0028 O.3     
   8 C8             1.5508    -2.1457    -0.0493 C.3     
   9 C9             3.0368    -2.1456    -0.4340 C.3     
  10 C10            0.0895    -3.9124    -0.3044 C.ar    
  11 C11            0.7179    -2.9080    -1.0368 C.ar    
  12 C12            1.3167    -2.8191     1.2723 C.2     
  13 N13            0.4601    -3.8336     1.0401 N.am    
  14 O14            1.8035    -2.5108     2.3396 O.2     
  15 C15            0.5009    -2.7880    -2.3909 C.ar    
  16 C16           -0.3474    -3.6695    -3.0378 C.ar    
  17 C17           -0.9757    -4.6710    -2.3210 C.ar    
  18 C18           -0.7616    -4.7954    -0.9636 C.ar    
  19 C19           -0.0258    -4.7472     2.0772 C.3     
  20 O20           -1.2112     2.0361     0.0189 O.3     
  21 C21           -1.1862     3.4156     0.4014 C.3     
  22 C22           -0.0353     4.1003    -0.3480 C.3     
  23 O23            1.1865     3.4485     0.0122 O.3     
  24 C24            0.9181    -5.9467     2.1831 C.3     
  25 C25            0.3459    -6.9612     3.1767 C.3     
  26 N26            1.2933    -8.0746     3.3325 N.3     
  27 C27            2.5973    -7.5868     3.8048 C.3     
  28 C28            3.1468    -6.5659     2.8049 C.3     
  29 O29            2.1991    -5.5072     2.6426 O.3     
  30 H30           -0.9269    -0.5549     0.0097 H       
  31 H31            3.3147     1.9549    -0.0199 H       
  32 H32            3.1576    -2.2570    -1.5115 H       
  33 H33            3.5748    -2.9289     0.1000 H       
  34 H34            0.9928    -2.0049    -2.9488 H       
  35 H35           -0.5184    -3.5752    -4.0999 H       
  36 H36           -1.6376    -5.3591    -2.8259 H       
  37 H37           -1.2558    -5.5805    -0.4106 H       
  38 H38           -0.0596    -4.2259     3.0338 H       
  39 H39           -1.0259    -5.0937     1.8166 H       
  40 H40           -2.1315     3.8883     0.1346 H       
  41 H41           -1.0246     3.4963     1.4763 H       
  42 H42           -0.1935     4.0134    -1.4229 H       
  43 H43            0.0119     5.1524    -0.0668 H       
  44 H44            1.0228    -6.4150     1.2044 H       
  45 H45            0.1903    -6.4781     4.1412 H       
  46 H46           -0.6043    -7.3417     2.8019 H       
  47 H47            0.9243    -8.7791     3.9534 H       
  48 H48            2.4776    -7.1136     4.7794 H       
  49 H49            3.2904    -8.4238     3.8885 H       
  50 H50            4.0863    -6.1592     3.1792 H       
  51 H51            3.3171    -7.0524     1.8445 H       
@<TRIPOS>BOND
   1    1    2 ar
   2    1    6 ar
   3    1   20 1
   4    2    3 ar
   5    2   30 1
   6    3    4 ar
   7    3    8 1
   8    4    5 ar
   9    4    7 1
  10    5    6 ar
  11    5   31 1
  12    6   23 1
  13    7    9 1
  14    8    9 1
  15    8   11 1
  16    8   12 1
  17    9   32 1
  18    9   33 1
  19   10   11 ar
  20   10   13 1
  21   10   18 ar
  22   11   15 ar
  23   12   13 am
  24   12   14 2
  25   13   19 1
  26   15   16 ar
  27   15   34 1
  28   16   17 ar
  29   16   35 1
  30   17   18 ar
  31   17   36 1
  32   18   37 1
  33   19   24 1
  34   19   38 1
  35   19   39 1
  36   20   21 1
  37   21   22 1
  38   21   40 1
  39   21   41 1
  40   22   23 1
  41   22   42 1
  42   22   43 1
  43   24   25 1
  44   24   29 1
  45   24   44 1
  46   25   26 1
  47   25   45 1
  48   25   46 1
  49   26   27 1
  50   26   47 1
  51   27   28 1
  52   27   48 1
  53   27   49 1
  54   28   29 1
  55   28   50 1
  56   28   51 1

#	End of record

