#	Name: ASD03090062
#	Creating user name:	WinNT
#	Creation time:	15. 06. 2019 20:28

#	Modifying user name:	WinNT
#	Modification time:	15. 06. 2019 20:28

#	Program:	/corina/corina34_cracker 3.40 0067  02.08.2006

@<TRIPOS>MOLECULE
ASD03090062
  40   42    0    0    0
SMALL
NO_CHARGES


@<TRIPOS>ATOM
   1 N1            -0.0159     1.3318    -0.4358 N.am    
   2 C2            -0.0086     0.1162     0.1460 C.2     
   3 O3             0.9936    -0.2836     0.7064 O.2     
   4 N4            -1.1122    -0.6564     0.1065 N.am    
   5 O5            -1.7806    -3.7763     1.3450 O.3     
   6 N6            -2.0920    -2.7702     0.7511 N.2     
   7 C7            -1.1046    -1.9145     0.7086 C.2     
   8 C8            -0.0225    -2.5233     1.3982 C.2     
   9 C9            -0.5156    -3.7213     1.7862 C.2     
  10 C10            0.2143    -4.7867     2.5630 C.3     
  11 F11            0.0223    -4.5790     3.9331 F       
  12 F12           -0.2825    -6.0455     2.2081 F       
  13 F13            1.5806    -4.7247     2.2689 F       
  14 C14            1.0932     2.1735    -0.3102 C.ar    
  15 C15            0.9170     3.5622    -0.2367 C.ar    
  16 C16            2.0299     4.3942    -0.1109 C.ar    
  17 C17            3.2990     3.8445    -0.0596 C.ar    
  18 C18            3.4672     2.4682    -0.1329 C.ar    
  19 C19            2.3704     1.6368    -0.2522 C.ar    
  20 O20           -0.7326     5.4534    -0.3369 O.3     
  21 C21           -0.4401     4.1418    -0.2926 C.2     
  22 N22           -1.5638     3.4630    -0.3078 N.2     
  23 C23           -2.5874     4.3292    -0.3619 C.2     
  24 C24           -2.0749     5.5726    -0.3803 C.2     
  25 O25            4.3842     4.6547     0.0625 O.3     
  26 C26            5.6645     4.0215     0.1095 C.3     
  27 C27            6.7550     5.0858     0.2475 C.3     
  28 H28           -0.7891     1.6212    -0.9451 H       
  29 H29           -1.9117    -0.3375    -0.3406 H       
  30 H30            0.9652    -2.1225     1.5723 H       
  31 H31            1.9013     5.4650    -0.0541 H       
  32 H32            4.4602     2.0453    -0.0927 H       
  33 H33            2.5082     0.5669    -0.3042 H       
  34 H34           -3.6364     4.0734    -0.3864 H       
  35 H35           -2.6346     6.4953    -0.4223 H       
  36 H36            5.7050     3.3468     0.9646 H       
  37 H37            5.8236     3.4551    -0.8081 H       
  38 H38            6.7145     5.7605    -0.6076 H       
  39 H39            6.5959     5.6522     1.1651 H       
  40 H40            7.7315     4.6028     0.2833 H       
@<TRIPOS>BOND
   1    1    2 am
   2    1   14 1
   3    1   28 1
   4    2    3 2
   5    2    4 am
   6    4    7 1
   7    4   29 1
   8    5    6 1
   9    5    9 1
  10    6    7 2
  11    7    8 1
  12    8    9 2
  13    8   30 1
  14    9   10 1
  15   10   11 1
  16   10   12 1
  17   10   13 1
  18   14   15 ar
  19   14   19 ar
  20   15   16 ar
  21   15   21 1
  22   16   17 ar
  23   16   31 1
  24   17   18 ar
  25   17   25 1
  26   18   19 ar
  27   18   32 1
  28   19   33 1
  29   20   21 1
  30   20   24 1
  31   21   22 2
  32   22   23 1
  33   23   24 2
  34   23   34 1
  35   24   35 1
  36   25   26 1
  37   26   27 1
  38   26   36 1
  39   26   37 1
  40   27   38 1
  41   27   39 1
  42   27   40 1

#	End of record

