#	Name: ASD01410480
#	Creating user name:	WinNT
#	Creation time:	15. 06. 2019 19:17

#	Modifying user name:	WinNT
#	Modification time:	15. 06. 2019 19:17

#	Program:	/corina/corina34_cracker 3.40 0067  02.08.2006

@<TRIPOS>MOLECULE
ASD01410480
  83   86    0    0    0
SMALL
NO_CHARGES


@<TRIPOS>ATOM
   1 C1             3.5270     4.8950    -3.4556 C.ar    
   2 C2             3.9993     4.1265    -4.5104 C.ar    
   3 C3             4.9246     3.1322    -4.2607 C.ar    
   4 N4             5.3614     2.9069    -3.0364 N.ar    
   5 C5             4.9350     3.6180    -2.0055 C.ar    
   6 C6             4.0046     4.6340    -2.1830 C.ar    
   7 O7             5.4106     3.3521    -0.7631 O.3     
   8 C8             6.2401     2.2848    -0.6119 C.ar    
   9 C9             7.5911     2.4055    -0.9276 C.ar    
  10 C10            8.4421     1.3262    -0.7771 C.ar    
  11 C11            7.9538     0.1147    -0.3105 C.ar    
  12 C12            6.5928    -0.0123     0.0092 C.ar    
  13 C13            5.7410     1.0863    -0.1403 C.ar    
  14 F14            8.0724     3.5827    -1.3834 F       
  15 N15            8.8119    -0.9735    -0.1598 N.am    
  16 C16            9.4790    -1.1504     0.9979 C.2     
  17 C17            8.9886    -1.9248    -1.2598 C.3     
  18 O18           10.2731    -2.0606     1.1072 O.2     
  19 C19            9.2382    -0.2174     2.1565 C.3     
  20 C20           10.4399    -0.2583     3.1026 C.3     
  21 C21           10.6284    -1.6835     3.6262 C.3     
  22 C22            9.3707    -2.1204     4.3800 C.3     
  23 C23            8.1690    -2.0795     3.4339 C.3     
  24 C24            7.9805    -0.6542     2.9103 C.3     
  25 C25            7.9524    -1.6426    -2.3495 C.3     
  26 C26           10.3953    -1.7752    -1.8425 C.3     
  27 C27            3.5074     4.3742    -5.9132 C.3     
  28 O28           11.3596    -2.1846    -0.8706 O.3     
  29 C29           12.7134    -2.0834    -1.3167 C.3     
  30 C30            9.5591    -3.5456     4.9036 C.3     
  31 O31            6.6444    -1.9237    -1.8474 O.3     
  32 C32            4.3977     5.3869    -6.5863 C.ar    
  33 C33            5.6089    -1.8067    -2.8252 C.3     
  34 C34            4.9948     5.0761    -7.7930 C.ar    
  35 C35            5.8122     6.0149    -8.4041 C.ar    
  36 C36            5.9988     7.2362    -7.7753 C.ar    
  37 C37            5.3684     7.4759    -6.5688 C.ar    
  38 N38            4.5935     6.5614    -6.0194 N.ar    
  39 C39            5.5644     8.7999    -5.8761 C.3     
  40 C40            6.0660    -1.2948     0.5054 C.2     
  41 O41            6.8189    -2.2312     0.6877 O.2     
  42 O42            4.7489    -1.4301     0.7572 O.3     
  43 C43            3.5221     5.4418    -1.0058 C.3     
  44 F44            2.5963     6.3953    -1.4425 F       
  45 F45            2.9133     4.5925    -0.0756 F       
  46 F46            4.6089     6.0874    -0.4063 F       
  47 H47            2.8065     5.6816    -3.6246 H       
  48 H48            5.2951     2.5312    -5.0780 H       
  49 H49            9.4887     1.4266    -1.0238 H       
  50 H50            4.6929     0.9953     0.1038 H       
  51 H51            8.8560    -2.9404    -0.8867 H       
  52 H52            9.1039     0.7980     1.7835 H       
  53 H53           11.3359     0.0529     2.5656 H       
  54 H54           10.2657     0.4166     3.9406 H       
  55 H55           10.8025    -2.3584     2.7882 H       
  56 H56           11.4845    -1.7127     4.3003 H       
  57 H57            9.1965    -1.4455     5.2180 H       
  58 H58            8.3431    -2.7543     2.5959 H       
  59 H59            7.2729    -2.3907     3.9709 H       
  60 H60            7.8063     0.0206     3.7483 H       
  61 H61            7.1244    -0.6250     2.2362 H       
  62 H62            8.0111    -0.5948    -2.6441 H       
  63 H63            8.1532    -2.2749    -3.2143 H       
  64 H64           10.4884    -2.3986    -2.7318 H       
  65 H65           10.5688    -0.7328    -2.1098 H       
  66 H66            3.5287     3.4409    -6.4758 H       
  67 H67            2.4864     4.7543    -5.8784 H       
  68 H68           13.3832    -2.4124    -0.5222 H       
  69 H69           12.8546    -2.7132    -2.1950 H       
  70 H70           12.9350    -1.0474    -1.5730 H       
  71 H71           10.4152    -3.5748     5.5776 H       
  72 H72            8.6631    -3.8569     5.4406 H       
  73 H73            9.7333    -4.2205     4.0656 H       
  74 H74            5.5332    -0.7696    -3.1520 H       
  75 H75            5.8432    -2.4409    -3.6801 H       
  76 H76            4.6604    -2.1205    -2.3892 H       
  77 H77            4.8274     4.1140    -8.2543 H       
  78 H78            6.2924     5.7996    -9.3472 H       
  79 H79            6.6291     7.9908    -8.2224 H       
  80 H80            4.7994     9.5011    -6.2095 H       
  81 H81            5.4851     8.6611    -4.7979 H       
  82 H82            6.5506     9.1950    -6.1200 H       
  83 H83            4.4501    -2.2907     1.0815 H       
@<TRIPOS>BOND
   1    1    2 ar
   2    1    6 ar
   3    1   47 1
   4    2    3 ar
   5    2   27 1
   6    3    4 ar
   7    3   48 1
   8    4    5 ar
   9    5    6 ar
  10    5    7 1
  11    6   43 1
  12    7    8 1
  13    8    9 ar
  14    8   13 ar
  15    9   10 ar
  16    9   14 1
  17   10   11 ar
  18   10   49 1
  19   11   12 ar
  20   11   15 1
  21   12   13 ar
  22   12   40 1
  23   13   50 1
  24   15   16 am
  25   15   17 1
  26   16   18 2
  27   16   19 1
  28   17   25 1
  29   17   26 1
  30   17   51 1
  31   19   20 1
  32   19   24 1
  33   19   52 1
  34   20   21 1
  35   20   53 1
  36   20   54 1
  37   21   22 1
  38   21   55 1
  39   21   56 1
  40   22   23 1
  41   22   30 1
  42   22   57 1
  43   23   24 1
  44   23   58 1
  45   23   59 1
  46   24   60 1
  47   24   61 1
  48   25   31 1
  49   25   62 1
  50   25   63 1
  51   26   28 1
  52   26   64 1
  53   26   65 1
  54   27   32 1
  55   27   66 1
  56   27   67 1
  57   28   29 1
  58   29   68 1
  59   29   69 1
  60   29   70 1
  61   30   71 1
  62   30   72 1
  63   30   73 1
  64   31   33 1
  65   32   34 ar
  66   32   38 ar
  67   33   74 1
  68   33   75 1
  69   33   76 1
  70   34   35 ar
  71   34   77 1
  72   35   36 ar
  73   35   78 1
  74   36   37 ar
  75   36   79 1
  76   37   38 ar
  77   37   39 1
  78   39   80 1
  79   39   81 1
  80   39   82 1
  81   40   41 2
  82   40   42 1
  83   42   83 1
  84   43   44 1
  85   43   45 1
  86   43   46 1

#	End of record

