#	Name: ASD01870505
#	Creating user name:	WinNT
#	Creation time:	15. 06. 2019 19:39

#	Modifying user name:	WinNT
#	Modification time:	15. 06. 2019 19:39

#	Program:	/corina/corina34_cracker 3.40 0067  02.08.2006

@<TRIPOS>MOLECULE
ASD01870505
  40   43    0    0    0
SMALL
NO_CHARGES


@<TRIPOS>ATOM
   1 C1            -0.0304     1.3986    -0.2325 C.ar    
   2 C2            -0.0276     0.0164    -0.1049 C.ar    
   3 C3             1.1510    -0.6616     0.1399 C.ar    
   4 C4             2.3475     0.0286     0.2615 C.ar    
   5 C5             2.3612     1.4081     0.1367 C.ar    
   6 C6             1.1592     2.1017    -0.1131 C.ar    
   7 C7             3.4166     2.4406     0.2059 C.2     
   8 N8             2.8510     3.6451     0.0080 N.am    
   9 C9             1.5250     3.5309    -0.1874 C.2     
  10 O10            0.7569     4.4495    -0.3910 O.2     
  11 O11            4.5965     2.2359     0.4082 O.2     
  12 C12            3.5522     4.8608     0.0059 C.ar    
  13 C13            4.0828     5.3540    -1.1783 C.ar    
  14 C14            4.7726     6.5497    -1.1809 C.ar    
  15 C15            4.9361     7.2601     0.0016 C.ar    
  16 C16            4.4056     6.7674     1.1866 C.ar    
  17 C17            3.7104     5.5734     1.1879 C.ar    
  18 Cl18           3.0408     4.9603     2.6676 Cl      
  19 N19            5.6359     8.4723    -0.0012 N.am    
  20 C20            6.4080     8.8071     1.0515 C.2     
  21 C21            7.2235    10.0309     1.0059 C.2     
  22 O22            6.4307     8.0975     2.0392 O.2     
  23 C23            8.0621    10.5079     1.9986 C.2     
  24 C24            8.6079    11.6872     1.4866 C.2     
  25 N25            8.1158    11.8699     0.2878 N.2     
  26 N26            7.3094    10.9210    -0.0267 N.pl3   
  27 C27            8.3291     9.8870     3.3455 C.3     
  28 Cl28          -1.5146     2.2424    -0.5471 Cl      
  29 H29           -0.9530    -0.5327    -0.1972 H       
  30 H30            1.1403    -1.7372     0.2375 H       
  31 H31            3.2653    -0.5074     0.4532 H       
  32 H32            3.9562     4.8018    -2.0978 H       
  33 H33            5.1855     6.9328    -2.1024 H       
  34 H34            4.5326     7.3196     2.1060 H       
  35 H35            5.5652     9.0714    -0.7609 H       
  36 H36            9.3111    12.3336     1.9906 H       
  37 H37            6.8322    10.8488    -0.8681 H       
  38 H38            9.1733     9.2017     3.2688 H       
  39 H39            8.5614    10.6702     4.0670 H       
  40 H40            7.4458     9.3398     3.6749 H       
@<TRIPOS>BOND
   1    1    2 ar
   2    1    6 ar
   3    1   28 1
   4    2    3 ar
   5    2   29 1
   6    3    4 ar
   7    3   30 1
   8    4    5 ar
   9    4   31 1
  10    5    7 1
  11    5    6 ar
  12    6    9 1
  13    7    8 am
  14    7   11 2
  15    8    9 am
  16    8   12 1
  17    9   10 2
  18   12   13 ar
  19   12   17 ar
  20   13   14 ar
  21   13   32 1
  22   14   15 ar
  23   14   33 1
  24   15   16 ar
  25   15   19 1
  26   16   17 ar
  27   16   34 1
  28   17   18 1
  29   19   20 am
  30   19   35 1
  31   20   21 1
  32   20   22 2
  33   21   23 2
  34   21   26 1
  35   23   24 1
  36   23   27 1
  37   24   25 2
  38   24   36 1
  39   25   26 1
  40   26   37 1
  41   27   38 1
  42   27   39 1
  43   27   40 1

#	End of record

