#	Name: ASD08070584
#	Creating user name:	WinNT
#	Creation time:	15. 06. 2019 21:15

#	Modifying user name:	WinNT
#	Modification time:	15. 06. 2019 21:15

#	Program:	/corina/corina34_cracker 3.40 0067  02.08.2006

@<TRIPOS>MOLECULE
ASD08070584
  43   44    0    0    0
SMALL
NO_CHARGES


@<TRIPOS>ATOM
   1 C1            -0.0167     1.3839     0.0097 C.ar    
   2 C2             0.0021    -0.0041     0.0020 C.ar    
   3 C3             1.2196    -0.6866    -0.0134 C.ar    
   4 C4             2.4063     0.0192    -0.0214 C.ar    
   5 C5             2.3859     1.4167    -0.0141 C.ar    
   6 C6             1.1645     2.0937     0.0022 C.ar    
   7 C7             3.6522     2.1752    -0.0227 C.2     
   8 N8             3.6306     3.5227    -0.0157 N.am    
   9 O9            -1.0090    -0.9190     0.0073 O.3     
  10 C10           -0.4107    -2.1573    -0.4184 C.3     
  11 O11            0.9663    -2.0283    -0.0182 O.3     
  12 O12            4.7147     1.5843    -0.0360 O.2     
  13 C13            4.8873     4.2756    -0.0241 C.3     
  14 C14            5.3681     4.4346    -1.4435 C.2     
  15 C15            4.6591     5.6561     0.5947 C.3     
  16 O16            6.5088     5.0956    -1.6957 O.3     
  17 O17            4.7267     3.9671    -2.3545 O.2     
  18 C18            6.9108     5.2101    -3.0862 C.3     
  19 C19            5.9716     6.4423     0.5859 C.3     
  20 C20            5.7743     7.7724     1.3158 C.3     
  21 C21            7.0868     8.5586     1.3070 C.3     
  22 C22            3.6064     6.4118    -0.2186 C.3     
  23 H23           -0.9603     1.9094     0.0170 H       
  24 H24            3.3489    -0.5078    -0.0329 H       
  25 H25            1.1456     3.1735     0.0074 H       
  26 H26            2.7829     3.9942    -0.0050 H       
  27 H27           -0.8787    -3.0022     0.0867 H       
  28 H28           -0.4863    -2.2670    -1.5003 H       
  29 H29            5.6373     3.7371     0.5553 H       
  30 H30            4.3114     5.5410     1.6213 H       
  31 H31            7.8465     5.7654    -3.1494 H       
  32 H32            7.0500     4.2144    -3.5073 H       
  33 H33            6.1375     5.7363    -3.6458 H       
  34 H34            6.7456     5.8629     1.0893 H       
  35 H35            6.2732     6.6342    -0.4438 H       
  36 H36            5.0003     8.3517     0.8124 H       
  37 H37            5.4726     7.5805     2.3455 H       
  38 H38            6.9462     9.5062     1.8270 H       
  39 H39            7.8608     7.9792     1.8103 H       
  40 H40            7.3884     8.7505     0.2773 H       
  41 H41            2.6713     5.8517    -0.2123 H       
  42 H42            3.4438     7.3953     0.2223 H       
  43 H43            3.9541     6.5269    -1.2452 H       
@<TRIPOS>BOND
   1    1    2 ar
   2    1    6 ar
   3    1   23 1
   4    2    3 ar
   5    2    9 1
   6    3    4 ar
   7    3   11 1
   8    4    5 ar
   9    4   24 1
  10    5    6 ar
  11    5    7 1
  12    6   25 1
  13    7    8 am
  14    7   12 2
  15    8   13 1
  16    8   26 1
  17    9   10 1
  18   10   11 1
  19   10   27 1
  20   10   28 1
  21   13   14 1
  22   13   15 1
  23   13   29 1
  24   14   16 1
  25   14   17 2
  26   15   19 1
  27   15   22 1
  28   15   30 1
  29   16   18 1
  30   18   31 1
  31   18   32 1
  32   18   33 1
  33   19   20 1
  34   19   34 1
  35   19   35 1
  36   20   21 1
  37   20   36 1
  38   20   37 1
  39   21   38 1
  40   21   39 1
  41   21   40 1
  42   22   41 1
  43   22   42 1
  44   22   43 1

#	End of record

