#	Name: ASD01903321
#	Creating user name:	WinNT
#	Creation time:	15. 06. 2019 19:54

#	Modifying user name:	WinNT
#	Modification time:	15. 06. 2019 19:54

#	Program:	/corina/corina34_cracker 3.40 0067  02.08.2006

@<TRIPOS>MOLECULE
ASD01903321
  33   36    0    0    0
SMALL
NO_CHARGES


@<TRIPOS>ATOM
   1 N1            -0.0111     0.9658     0.0074 N.pl3   
   2 H2             0.0454    -0.0025     0.0035 H       
   3 C3             1.1476     1.7282    -0.0089 C.2     
   4 C4            -1.2545     1.5901     0.0234 C.ar    
   5 S5             2.7871     1.0915     0.0955 S.3     
   6 C6             3.4264     2.7258     0.0229 C.2     
   7 C7             2.3896     3.5844    -0.1232 C.2     
   8 N8             1.1933     3.0225    -0.1090 N.2     
   9 N9            -1.3251     2.9088     0.1244 N.ar    
  10 C10           -2.4855     3.5404     0.1428 C.ar    
  11 C11           -3.6753     2.8389     0.0563 C.ar    
  12 C12           -3.6420     1.4559    -0.0508 C.ar    
  13 C13           -2.4110     0.8240    -0.0726 C.ar    
  14 F14           -2.5108     4.8871     0.2477 F       
  15 C15            4.8498     3.1710     0.1528 C.3     
  16 C16            5.5092     3.5271    -1.1893 C.3     
  17 C17            4.4976     4.3309    -2.0278 C.3     
  18 C18            3.7490     5.3472    -1.2218 C.2     
  19 C19            2.7286     5.0234    -0.3762 C.2     
  20 N20            3.8939     6.6817    -1.1697 N.pl3   
  21 N21            2.8889     7.1962    -0.3342 N.2     
  22 C22            2.1827     6.1936     0.1372 C.2     
  23 H23           -4.6198     3.3624     0.0723 H       
  24 H24           -4.5565     0.8855    -0.1194 H       
  25 H25           -2.3495    -0.2511    -0.1551 H       
  26 H26            4.8833     4.0468     0.8009 H       
  27 H27            5.4236     2.3717     0.6219 H       
  28 H28            6.4003     4.1293    -1.0123 H       
  29 H29            5.7815     2.6139    -1.7184 H       
  30 H30            5.0325     4.8421    -2.8282 H       
  31 H31            3.7821     3.6393    -2.4727 H       
  32 H32            4.5740     7.1994    -1.6283 H       
  33 H33            1.3342     6.2657     0.8015 H       
@<TRIPOS>BOND
   1    1    2 1
   2    1    3 1
   3    1    4 1
   4    3    5 1
   5    3    8 2
   6    4    9 ar
   7    4   13 ar
   8    5    6 1
   9    6    7 2
  10    6   15 1
  11    7    8 1
  12    7   19 1
  13    9   10 ar
  14   10   11 ar
  15   10   14 1
  16   11   12 ar
  17   11   23 1
  18   12   13 ar
  19   12   24 1
  20   13   25 1
  21   15   16 1
  22   15   26 1
  23   15   27 1
  24   16   17 1
  25   16   28 1
  26   16   29 1
  27   17   18 1
  28   17   30 1
  29   17   31 1
  30   18   19 2
  31   18   20 1
  32   19   22 1
  33   20   21 1
  34   20   32 1
  35   21   22 2
  36   22   33 1

#	End of record

