#	Name: ASD01816873
#	Creating user name:	WinNT
#	Creation time:	15. 06. 2019 19:36

#	Modifying user name:	WinNT
#	Modification time:	15. 06. 2019 19:36

#	Program:	/corina/corina34_cracker 3.40 0067  02.08.2006

@<TRIPOS>MOLECULE
ASD01816873
  51   54    0    0    0
SMALL
NO_CHARGES


@<TRIPOS>ATOM
   1 C1            -0.0229     1.3791     0.1135 C.ar    
   2 C2             0.0090    -0.0087     0.2271 C.ar    
   3 C3             1.1863    -0.6923     0.1400 C.ar    
   4 C4             2.3853     0.0114    -0.0674 C.ar    
   5 C5             2.3561     1.4259    -0.1837 C.ar    
   6 C6             1.1189     2.0951    -0.0879 C.ar    
   7 C7             3.6189    -0.6588    -0.1622 C.ar    
   8 C8             4.7450     0.0861    -0.3637 C.ar    
   9 C9             4.6485     1.4816    -0.4702 C.ar    
  10 N10            3.4877     2.1012    -0.3805 N.ar    
  11 C11            5.8795     2.2781    -0.6889 C.2     
  12 N12            5.8045     3.6197    -0.7935 N.am    
  13 O13            6.9562     1.7214    -0.7741 O.2     
  14 C14            7.0210     4.4068    -1.0097 C.3     
  15 C15            6.8093     5.8312    -0.4876 C.3     
  16 C16            3.6950    -2.1592    -0.0439 C.3     
  17 C17            5.1288    -2.6020    -0.1828 C.ar    
  18 C18            5.9417    -2.7103     0.9354 C.ar    
  19 C19            5.6484    -2.9107    -1.4254 C.ar    
  20 N20            6.9019    -3.2997    -1.5548 N.ar    
  21 C21            7.7048    -3.4092    -0.5147 C.ar    
  22 C22            7.2538    -3.1218     0.7599 C.ar    
  23 C23            8.0559     6.6672    -0.7886 C.3     
  24 O24            8.3082     6.6545    -2.1951 O.3     
  25 C25            8.5604     5.3540    -2.7309 C.3     
  26 C26            7.3340     4.4652    -2.5080 C.3     
  27 O27            6.5881     5.7946     0.9237 O.3     
  28 C28            9.1290    -3.8581    -0.7172 C.3     
  29 F29            9.3879    -3.9846    -2.0862 F       
  30 F30            9.9992    -2.9128    -0.1635 F       
  31 F31            9.3223    -5.0936    -0.0899 F       
  32 F32            1.1998    -2.0385     0.2528 F       
  33 F33            1.0656     3.4408    -0.1949 F       
  34 H34           -0.9688     1.8959     0.1816 H       
  35 H35           -0.9111    -0.5512     0.3869 H       
  36 H36            5.7076    -0.3976    -0.4406 H       
  37 H37            4.9449     4.0641    -0.7255 H       
  38 H38            7.8536     3.9442    -0.4797 H       
  39 H39            5.9449     6.2753    -0.9813 H       
  40 H40            3.3125    -2.4668     0.9294 H       
  41 H41            3.0956    -2.6166    -0.8310 H       
  42 H42            5.5617    -2.4793     1.9196 H       
  43 H43            5.0206    -2.8328    -2.3008 H       
  44 H44            7.9164    -3.2130     1.6079 H       
  45 H45            7.8943     7.6931    -0.4575 H       
  46 H46            8.9121     6.2457    -0.2619 H       
  47 H47            8.7621     5.4338    -3.7991 H       
  48 H48            9.4232     4.9153    -2.2297 H       
  49 H49            7.5405     3.4603    -2.8764 H       
  50 H50            6.4802     4.8818    -3.0425 H       
  51 H51            6.4462     6.6641     1.3223 H       
@<TRIPOS>BOND
   1    1    2 ar
   2    1    6 ar
   3    1   34 1
   4    2    3 ar
   5    2   35 1
   6    3    4 ar
   7    3   32 1
   8    4    5 ar
   9    4    7 ar
  10    5    6 ar
  11    5   10 ar
  12    6   33 1
  13    7    8 ar
  14    7   16 1
  15    8    9 ar
  16    8   36 1
  17    9   10 ar
  18    9   11 1
  19   11   12 am
  20   11   13 2
  21   12   14 1
  22   12   37 1
  23   14   15 1
  24   14   26 1
  25   14   38 1
  26   15   23 1
  27   15   27 1
  28   15   39 1
  29   16   17 1
  30   16   40 1
  31   16   41 1
  32   17   18 ar
  33   17   19 ar
  34   18   22 ar
  35   18   42 1
  36   19   20 ar
  37   19   43 1
  38   20   21 ar
  39   21   22 ar
  40   21   28 1
  41   22   44 1
  42   23   24 1
  43   23   45 1
  44   23   46 1
  45   24   25 1
  46   25   26 1
  47   25   47 1
  48   25   48 1
  49   26   49 1
  50   26   50 1
  51   27   51 1
  52   28   29 1
  53   28   30 1
  54   28   31 1

#	End of record

