#	Name: ASD01812740
#	Creating user name:	WinNT
#	Creation time:	15. 06. 2019 19:29

#	Modifying user name:	WinNT
#	Modification time:	15. 06. 2019 19:29

#	Program:	/corina/corina34_cracker 3.40 0067  02.08.2006

@<TRIPOS>MOLECULE
ASD01812740
  52   56    0    0    0
SMALL
NO_CHARGES


@<TRIPOS>ATOM
   1 C1            -0.0166     1.3762     0.0096 C.ar    
   2 C2             0.0021    -0.0041     0.0020 C.ar    
   3 C3             1.2089    -0.6874    -0.0132 C.ar    
   4 C4             2.3943     0.0071    -0.0204 C.ar    
   5 C5             2.3946     1.4053    -0.0129 C.ar    
   6 C6             1.1723     2.0915     0.0021 C.ar    
   7 C7             3.8414    -0.4183    -0.0360 C.3     
   8 N8             4.6317     0.8181    -0.0366 N.am    
   9 C9             3.7920     1.8677    -0.0233 C.2     
  10 C10            6.0945     0.8958    -0.0497 C.3     
  11 C11            6.5831     0.9301    -1.4749 C.ar    
  12 C12            6.7403     2.1494    -2.1129 C.ar    
  13 C13            7.1906     2.1744    -3.4242 C.ar    
  14 C14            7.4692     0.9578    -4.0519 C.ar    
  15 C15            7.2848    -0.2261    -3.3405 C.ar    
  16 N16            6.8596    -0.2013    -2.0942 N.ar    
  17 O17            1.1519     3.4476     0.0096 O.3     
  18 O18            4.1377     3.0334    -0.0208 O.2     
  19 C19           -0.0581     4.0679     0.0246 C.ar    
  20 C20            7.9531     0.9268    -5.4542 C.ar    
  21 F21            6.4578     3.3009    -1.4653 F       
  22 C22            8.1404     2.1095    -6.1754 C.ar    
  23 C23            8.5924     2.0355    -7.4767 C.ar    
  24 N24            8.8466     0.8698    -8.0400 N.ar    
  25 C25            8.6832    -0.2690    -7.3946 C.ar    
  26 C26            8.2397    -0.2852    -6.0879 C.ar    
  27 C27            8.9904    -1.5693    -8.0917 C.3     
  28 C28           -0.6658     4.3788     1.2338 C.ar    
  29 C29           -1.8969     5.0104     1.2455 C.ar    
  30 C30           -2.5221     5.3315     0.0550 C.ar    
  31 C31           -1.9200     5.0229    -1.1508 C.ar    
  32 C32           -0.6862     4.3969    -1.1695 C.ar    
  33 F33           -0.0959     4.1008    -2.3480 F       
  34 F34           -0.0559     4.0645     2.3977 F       
  35 H35           -0.9603     1.9014     0.0169 H       
  36 H36           -0.9272    -0.5543     0.0083 H       
  37 H37            1.2168    -1.7673    -0.0191 H       
  38 H38            4.0683    -1.0076     0.8524 H       
  39 H39            4.0519    -0.9980    -0.9347 H       
  40 H40            6.4149     1.8010     0.4661 H       
  41 H41            6.5092     0.0236     0.4557 H       
  42 H42            7.3223     3.1103    -3.9468 H       
  43 H43            7.4962    -1.1732    -3.8145 H       
  44 H44            7.9340     3.0671    -5.7207 H       
  45 H45            8.7398     2.9438    -8.0420 H       
  46 H46            8.1125    -1.2210    -5.5640 H       
  47 H47           10.0350    -1.8327    -7.9255 H       
  48 H48            8.3496    -2.3556    -7.6928 H       
  49 H49            8.8089    -1.4601    -9.1609 H       
  50 H50           -2.3700     5.2524     2.1857 H       
  51 H51           -3.4831     5.8241     0.0668 H       
  52 H52           -2.4114     5.2745    -2.0790 H       
@<TRIPOS>BOND
   1    1    2 ar
   2    1    6 ar
   3    1   35 1
   4    2    3 ar
   5    2   36 1
   6    3    4 ar
   7    3   37 1
   8    4    7 1
   9    4    5 ar
  10    5    6 ar
  11    5    9 1
  12    6   17 1
  13    7    8 1
  14    7   38 1
  15    7   39 1
  16    8    9 am
  17    8   10 1
  18    9   18 2
  19   10   11 1
  20   10   40 1
  21   10   41 1
  22   11   12 ar
  23   11   16 ar
  24   12   13 ar
  25   12   21 1
  26   13   14 ar
  27   13   42 1
  28   14   15 ar
  29   14   20 1
  30   15   16 ar
  31   15   43 1
  32   17   19 1
  33   19   28 ar
  34   19   32 ar
  35   20   22 ar
  36   20   26 ar
  37   22   23 ar
  38   22   44 1
  39   23   24 ar
  40   23   45 1
  41   24   25 ar
  42   25   26 ar
  43   25   27 1
  44   26   46 1
  45   27   47 1
  46   27   48 1
  47   27   49 1
  48   28   29 ar
  49   28   34 1
  50   29   30 ar
  51   29   50 1
  52   30   31 ar
  53   30   51 1
  54   31   32 ar
  55   31   52 1
  56   32   33 1

#	End of record

