#	Name: ASD01810943
#	Creating user name:	WinNT
#	Creation time:	15. 06. 2019 19:25

#	Modifying user name:	WinNT
#	Modification time:	15. 06. 2019 19:25

#	Program:	/corina/corina34_cracker 3.40 0067  02.08.2006

@<TRIPOS>MOLECULE
ASD01810943
  38   39    0    0    0
SMALL
NO_CHARGES


@<TRIPOS>ATOM
   1 C1             0.6130     1.0907     0.5644 C.2     
   2 C2             0.4211    -0.3653     0.4025 C.ar    
   3 C3             1.5238    -1.1982     0.1939 C.ar    
   4 C4             1.3464    -2.5589     0.0429 C.ar    
   5 C5             0.0800    -3.1068     0.0963 C.ar    
   6 C6            -1.0316    -2.2860     0.3042 C.ar    
   7 C7            -0.8592    -0.9118     0.4632 C.ar    
   8 O8             1.7349     1.5530     0.6190 O.2     
   9 O9            -0.4562     1.9060     0.6458 O.3     
  10 C10            2.9097    -0.6094     0.1331 C.3     
  11 C11           -0.1037    -4.5932    -0.0706 C.3     
  12 C12            1.2467    -5.2424    -0.3802 C.3     
  13 C13            1.1836    -6.7753    -0.4854 C.3     
  14 C14            2.1548    -6.6554    -1.6716 C.3     
  15 C15            1.6064    -5.2332    -1.8753 C.3     
  16 C16           -2.3850    -2.8734     0.3610 C.2     
  17 N17           -3.4658    -2.0708     0.4255 N.am    
  18 S18           -2.5813    -4.5740     0.3448 S.2     
  19 C19           -0.1925     3.3251     0.8042 C.3     
  20 H20            2.2021    -3.1978    -0.1181 H       
  21 H21           -1.7143    -0.2733     0.6286 H       
  22 H22            3.2947    -0.4812     1.1448 H       
  23 H23            3.5652    -1.2798    -0.4227 H       
  24 H24            2.8717     0.3585    -0.3666 H       
  25 H25           -0.5072    -5.0151     0.8499 H       
  26 H26           -0.7952    -4.7839    -0.8914 H       
  27 H27            2.0476    -4.8817     0.2652 H       
  28 H28            1.6084    -7.2900     0.3764 H       
  29 H29            0.1998    -7.1538    -0.7630 H       
  30 H30            3.2049    -6.6808    -1.3805 H       
  31 H31            1.9259    -7.3335    -2.4937 H       
  32 H32            0.7382    -5.1900    -2.5330 H       
  33 H33            2.3725    -4.5029    -2.1356 H       
  34 H34           -3.3545    -1.1072     0.4347 H       
  35 H35           -4.3549    -2.4567     0.4628 H       
  36 H36            0.3719     3.4895     1.7221 H       
  37 H37            0.3857     3.6844    -0.0471 H       
  38 H38           -1.1370     3.8665     0.8564 H       
@<TRIPOS>BOND
   1    1    2 1
   2    1    8 2
   3    1    9 1
   4    2    3 ar
   5    2    7 ar
   6    3    4 ar
   7    3   10 1
   8    4    5 ar
   9    4   20 1
  10    5    6 ar
  11    5   11 1
  12    6    7 ar
  13    6   16 1
  14    7   21 1
  15    9   19 1
  16   10   22 1
  17   10   23 1
  18   10   24 1
  19   11   12 1
  20   11   25 1
  21   11   26 1
  22   12   13 1
  23   12   15 1
  24   12   27 1
  25   13   14 1
  26   13   28 1
  27   13   29 1
  28   14   15 1
  29   14   30 1
  30   14   31 1
  31   15   32 1
  32   15   33 1
  33   16   17 am
  34   16   18 2
  35   17   34 1
  36   17   35 1
  37   19   36 1
  38   19   37 1
  39   19   38 1

#	End of record

