#	Name: ASD01810330
#	Creating user name:	WinNT
#	Creation time:	15. 06. 2019 19:24

#	Modifying user name:	WinNT
#	Modification time:	15. 06. 2019 19:24

#	Program:	/corina/corina34_cracker 3.40 0067  02.08.2006

@<TRIPOS>MOLECULE
ASD01810330
  56   58    0    0    0
SMALL
NO_CHARGES


@<TRIPOS>ATOM
   1 C1            -0.0167     1.3786     0.0096 C.ar    
   2 C2             0.0021    -0.0041     0.0020 C.ar    
   3 C3             1.2073    -0.6823    -0.0128 C.ar    
   4 C4             2.3967     0.0194    -0.0197 C.ar    
   5 C5             2.3811     1.4080    -0.0123 C.ar    
   6 C6             1.1694     2.0858     0.0021 C.ar    
   7 N7             3.5816     2.1246    -0.0199 N.am    
   8 C8             3.6069     3.4170     0.3541 C.2     
   9 C9             2.3508     4.1124     0.8054 C.3     
  10 C10            1.1530     3.5923     0.0096 C.3     
  11 C11            4.8207     1.4638    -0.4374 C.3     
  12 C12            5.0052     1.6328    -1.9468 C.3     
  13 C13            6.2993     0.9427    -2.3828 C.3     
  14 N14            6.4765     1.1050    -3.8320 N.3     
  15 C15            7.8138     0.6665    -4.2511 C.3     
  16 C16            8.0146     0.9839    -5.7346 C.3     
  17 C17            6.9407     0.2644    -6.5554 C.3     
  18 C18            5.5572     0.7023    -6.0666 C.3     
  19 C19            5.4277     0.3931    -4.5734 C.3     
  20 C20            7.0989     0.6263    -8.0335 C.3     
  21 C21            6.1071    -0.1877    -8.8669 C.3     
  22 C22            6.2653     0.1742   -10.3450 C.3     
  23 C23            5.2735    -0.6399   -11.1784 C.3     
  24 O24            4.6541     4.0283     0.3277 O.2     
  25 H25           -0.9593     1.9056     0.0170 H       
  26 H26           -0.9265    -0.5555     0.0080 H       
  27 H27            1.2183    -1.7623    -0.0187 H       
  28 H28            3.3375    -0.5108    -0.0303 H       
  29 H29            2.1916     3.9199     1.8663 H       
  30 H30            2.4537     5.1856     0.6450 H       
  31 H31            1.2095     3.9613    -1.0145 H       
  32 H32            0.2302     3.9431     0.4715 H       
  33 H33            5.6657     1.9129     0.0845 H       
  34 H34            4.7661     0.4026    -0.1946 H       
  35 H35            4.1603     1.1837    -2.4687 H       
  36 H36            5.0598     2.6940    -2.1896 H       
  37 H37            7.1443     1.3918    -1.8609 H       
  38 H38            6.2447    -0.1185    -2.1401 H       
  39 H39            8.5682     1.1887    -3.6626 H       
  40 H40            7.9098    -0.4078    -4.0933 H       
  41 H41            7.9325     2.0594    -5.8911 H       
  42 H42            9.0014     0.6441    -6.0491 H       
  43 H43            7.0472    -0.8131    -6.4298 H       
  44 H44            5.4364     1.7735    -6.2283 H       
  45 H45            4.7884     0.1615    -6.6183 H       
  46 H46            5.5348    -0.6799    -4.4141 H       
  47 H47            4.4490     0.7168    -4.2191 H       
  48 H48            6.9018     1.6895    -8.1704 H       
  49 H49            8.1154     0.4008    -8.3560 H       
  50 H50            6.3042    -1.2510    -8.7300 H       
  51 H51            5.0906     0.0378    -8.5444 H       
  52 H52            6.0681     1.2374   -10.4819 H       
  53 H53            7.2818    -0.0513   -10.6675 H       
  54 H54            5.4706    -1.7031   -11.0415 H       
  55 H55            4.2570    -0.4144   -10.8559 H       
  56 H56            5.3862    -0.3821   -12.2315 H       
@<TRIPOS>BOND
   1    1    2 ar
   2    1    6 ar
   3    1   25 1
   4    2    3 ar
   5    2   26 1
   6    3    4 ar
   7    3   27 1
   8    4    5 ar
   9    4   28 1
  10    5    6 ar
  11    5    7 1
  12    6   10 1
  13    7    8 am
  14    7   11 1
  15    8    9 1
  16    8   24 2
  17    9   10 1
  18    9   29 1
  19    9   30 1
  20   10   31 1
  21   10   32 1
  22   11   12 1
  23   11   33 1
  24   11   34 1
  25   12   13 1
  26   12   35 1
  27   12   36 1
  28   13   14 1
  29   13   37 1
  30   13   38 1
  31   14   15 1
  32   14   19 1
  33   15   16 1
  34   15   39 1
  35   15   40 1
  36   16   17 1
  37   16   41 1
  38   16   42 1
  39   17   18 1
  40   17   20 1
  41   17   43 1
  42   18   19 1
  43   18   44 1
  44   18   45 1
  45   19   46 1
  46   19   47 1
  47   20   21 1
  48   20   48 1
  49   20   49 1
  50   21   22 1
  51   21   50 1
  52   21   51 1
  53   22   23 1
  54   22   52 1
  55   22   53 1
  56   23   54 1
  57   23   55 1
  58   23   56 1

#	End of record

