#	Name: ASD03082017
#	Creating user name:	WinNT
#	Creation time:	15. 06. 2019 20:27

#	Modifying user name:	WinNT
#	Modification time:	15. 06. 2019 20:27

#	Program:	/corina/corina34_cracker 3.40 0067  02.08.2006

@<TRIPOS>MOLECULE
ASD03082017
  50   52    0    0    0
SMALL
NO_CHARGES


@<TRIPOS>ATOM
   1 C1            -0.0235     1.4762     0.0045 C.3     
   2 N2            -0.0033     0.0074     0.0117 N.3     
   3 C3             0.6174    -0.5229    -1.2096 C.3     
   4 C4             2.0824    -0.0775    -1.2689 C.3     
   5 N5             2.1317     1.3860    -1.1312 N.am    
   6 C6             1.4152     2.0035    -0.0050 C.3     
   7 S7             2.9722     2.3138    -2.2153 S.o2    
   8 C8            -1.3555    -0.5369     0.1940 C.3     
   9 C9            -2.2085    -0.1714    -0.9933 C.2     
  10 N10           -3.4632    -0.6527    -1.0954 N.am    
  11 O11           -1.7658     0.5560    -1.8571 O.2     
  12 C12           -4.2959    -0.2220    -2.1358 C.ar    
  13 C13           -4.0796     1.0109    -2.7348 C.ar    
  14 C14           -4.9025     1.4331    -3.7615 C.ar    
  15 C15           -5.9412     0.6295    -4.1928 C.ar    
  16 C16           -6.1610    -0.6003    -3.5991 C.ar    
  17 C17           -5.3381    -1.0316    -2.5751 C.ar    
  18 O18            3.9528     1.4644    -2.7951 O.2     
  19 C19            1.8566     2.7422    -3.5102 C.ar    
  20 O20            3.2918     3.5248    -1.5440 O.2     
  21 C21            1.1029     3.8976    -3.4177 C.ar    
  22 C22            0.2276     4.2357    -4.4316 C.ar    
  23 C23            0.1052     3.4148    -5.5432 C.ar    
  24 C24            0.8627     2.2560    -5.6336 C.ar    
  25 C25            1.7407     1.9253    -4.6197 C.ar    
  26 F26           -5.5525    -2.2327    -1.9951 F       
  27 O27           -0.7555     3.7450    -6.5418 O.3     
  28 C28           -0.8295     2.8531    -7.6558 C.3     
  29 H29           -0.5459     1.8284    -0.8849 H       
  30 H30           -0.5373     1.8372     0.8955 H       
  31 H31            0.5684    -1.6118    -1.1992 H       
  32 H32            0.0861    -0.1429    -2.0821 H       
  33 H33            2.6392    -0.5409    -0.4544 H       
  34 H34            2.5157    -0.3702    -2.2253 H       
  35 H35            1.4074     3.0868    -0.1258 H       
  36 H36            1.9079     1.7402     0.9310 H       
  37 H37           -1.3015    -1.6220     0.2824 H       
  38 H38           -1.7958    -0.1201     1.0998 H       
  39 H39           -3.7895    -1.2973    -0.4483 H       
  40 H40           -3.2689     1.6402    -2.3985 H       
  41 H41           -4.7340     2.3927    -4.2275 H       
  42 H42           -6.5829     0.9628    -4.9950 H       
  43 H43           -6.9734    -1.2258    -3.9384 H       
  44 H44            1.1982     4.5362    -2.5519 H       
  45 H45           -0.3612     5.1382    -4.3587 H       
  46 H46            0.7692     1.6153    -6.4980 H       
  47 H47            2.3306     1.0233    -4.6896 H       
  48 H48            0.1506     2.7781    -8.1269 H       
  49 H49           -1.1438     1.8677    -7.3121 H       
  50 H50           -1.5516     3.2334    -8.3783 H       
@<TRIPOS>BOND
   1    1    2 1
   2    1    6 1
   3    1   29 1
   4    1   30 1
   5    2    3 1
   6    2    8 1
   7    3    4 1
   8    3   31 1
   9    3   32 1
  10    4    5 1
  11    4   33 1
  12    4   34 1
  13    5    6 1
  14    5    7 am
  15    6   35 1
  16    6   36 1
  17    7   18 2
  18    7   19 1
  19    7   20 2
  20    8    9 1
  21    8   37 1
  22    8   38 1
  23    9   10 am
  24    9   11 2
  25   10   12 1
  26   10   39 1
  27   12   13 ar
  28   12   17 ar
  29   13   14 ar
  30   13   40 1
  31   14   15 ar
  32   14   41 1
  33   15   16 ar
  34   15   42 1
  35   16   17 ar
  36   16   43 1
  37   17   26 1
  38   19   21 ar
  39   19   25 ar
  40   21   22 ar
  41   21   44 1
  42   22   23 ar
  43   22   45 1
  44   23   24 ar
  45   23   27 1
  46   24   25 ar
  47   24   46 1
  48   25   47 1
  49   27   28 1
  50   28   48 1
  51   28   49 1
  52   28   50 1

#	End of record

