#	Name: ASD01915805
#	Creating user name:	WinNT
#	Creation time:	15. 06. 2019 20:06

#	Modifying user name:	WinNT
#	Modification time:	15. 06. 2019 20:06

#	Program:	/corina/corina34_cracker 3.40 0067  02.08.2006

@<TRIPOS>MOLECULE
ASD01915805
  44   47    0    0    0
SMALL
NO_CHARGES


@<TRIPOS>ATOM
   1 C1            -0.0166     1.3727     0.0096 C.2     
   2 N2             0.0021    -0.0041     0.0020 N.pl3   
   3 C3            -1.2434    -0.7807    -0.0179 C.3     
   4 C4            -2.3411     0.0067     0.6955 C.3     
   5 N5            -2.4045     1.3987     0.2637 N.am    
   6 C6            -1.2814     2.1228     0.0393 C.2     
   7 C7             1.2844     1.7904    -0.0006 C.2     
   8 C8             2.0436     0.6124    -0.0024 C.2     
   9 N9             1.2133    -0.4043     0.0045 N.2     
  10 C10            3.5482     0.5278    -0.0102 C.3     
  11 O11            4.0995     1.8462    -0.0157 O.3     
  12 C12            5.4546     1.9483    -0.0231 C.ar    
  13 O13           -1.3172     3.3272    -0.1281 O.2     
  14 C14            6.0572     3.1979    -0.0287 C.ar    
  15 C15            6.2377     0.8032    -0.0193 C.ar    
  16 C16            7.6150     0.9097    -0.0269 C.ar    
  17 C17            8.2132     2.1562    -0.0383 C.ar    
  18 C18            7.4349     3.2990    -0.0363 C.ar    
  19 C19           -3.6553     2.0007     0.0764 C.ar    
  20 C20           -4.2914     1.9440    -1.1674 C.ar    
  21 C21           -4.2844     2.6568     1.1228 C.ar    
  22 N22           -5.4626     3.2252     0.9509 N.ar    
  23 C23           -6.0885     3.1957    -0.2102 C.ar    
  24 C24           -5.5322     2.5576    -1.3011 C.ar    
  25 O25           -3.7123     1.3068    -2.2178 O.3     
  26 C26           -4.4350     1.2994    -3.4506 C.3     
  27 H27           -1.5404    -0.9655    -1.0502 H       
  28 H28           -1.0875    -1.7314     0.4921 H       
  29 H29           -3.3017    -0.4681     0.4956 H       
  30 H30           -2.1535    -0.0209     1.7689 H       
  31 H31            1.6485     2.8071    -0.0064 H       
  32 H32            3.8869    -0.0039     0.8790 H       
  33 H33            3.8774    -0.0074    -0.9009 H       
  34 H34            5.4497     4.0909    -0.0276 H       
  35 H35            5.7710    -0.1707    -0.0101 H       
  36 H36            8.2251     0.0185    -0.0236 H       
  37 H37            9.2901     2.2373    -0.0442 H       
  38 H38            7.9045     4.2716    -0.0456 H       
  39 H39           -3.8050     2.7029     2.0895 H       
  40 H40           -7.0521     3.6735    -0.3075 H       
  41 H41           -6.0523     2.5390    -2.2474 H       
  42 H42           -5.3973     0.8087    -3.3047 H       
  43 H43           -4.5967     2.3247    -3.7831 H       
  44 H44           -3.8622     0.7591    -4.2043 H       
@<TRIPOS>BOND
   1    1    2 1
   2    1    7 2
   3    1    6 1
   4    2    3 1
   5    2    9 1
   6    3    4 1
   7    3   27 1
   8    3   28 1
   9    4    5 1
  10    4   29 1
  11    4   30 1
  12    5    6 am
  13    5   19 1
  14    6   13 2
  15    7    8 1
  16    7   31 1
  17    8    9 2
  18    8   10 1
  19   10   11 1
  20   10   32 1
  21   10   33 1
  22   11   12 1
  23   12   14 ar
  24   12   15 ar
  25   14   18 ar
  26   14   34 1
  27   15   16 ar
  28   15   35 1
  29   16   17 ar
  30   16   36 1
  31   17   18 ar
  32   17   37 1
  33   18   38 1
  34   19   21 ar
  35   19   20 ar
  36   20   25 1
  37   20   24 ar
  38   21   22 ar
  39   21   39 1
  40   22   23 ar
  41   23   24 ar
  42   23   40 1
  43   24   41 1
  44   25   26 1
  45   26   42 1
  46   26   43 1
  47   26   44 1

#	End of record

