#	Name: ASD01882789
#	Creating user name:	WinNT
#	Creation time:	15. 06. 2019 19:45

#	Modifying user name:	WinNT
#	Modification time:	15. 06. 2019 19:45

#	Program:	/corina/corina34_cracker 3.40 0067  02.08.2006

@<TRIPOS>MOLECULE
ASD01882789
  41   44    0    0    0
SMALL
NO_CHARGES


@<TRIPOS>ATOM
   1 C1            -0.1973     1.6053    -0.0773 C.2     
   2 C2             0.0031     0.2116    -0.0994 C.2     
   3 C3            -1.0684    -0.6156     0.0332 C.2     
   4 C4            -2.3547    -0.0711     0.1896 C.2     
   5 C5            -2.5315     1.2666     0.2084 C.2     
   6 N6            -1.4669     2.1078     0.0705 N.pl3   
   7 C7            -0.8772    -2.1103     0.0120 C.3     
   8 O8            -1.4671    -2.6826     1.1810 O.3     
   9 C9             1.3886    -0.3567    -0.2684 C.3     
  10 C10           -1.0037    -3.8987     1.5739 C.ar    
  11 C11           -1.5469    -2.6925    -1.2344 C.3     
  12 N12            0.6164     2.6436    -0.1787 N.2     
  13 N13           -0.0647     3.7323    -0.0973 N.2     
  14 C14           -1.3356     3.4620     0.0538 C.2     
  15 C15           -2.4511     4.4670     0.1832 C.3     
  16 F16            1.4131    -1.2023    -1.3826 F       
  17 F17            2.3012     0.6871    -0.4550 F       
  18 F18            1.7377    -1.0824     0.8756 F       
  19 C19           -2.3881     5.4449     1.3582 C.3     
  20 C20           -2.1089     5.9378    -0.0631 C.3     
  21 C21           -1.5613    -4.5311     2.6754 C.ar    
  22 C22           -1.0889    -5.7686     3.0735 C.ar    
  23 C23           -0.0586    -6.3760     2.3713 C.ar    
  24 C24            0.4975    -5.7445     1.2729 C.ar    
  25 C25            0.0229    -4.5105     0.8702 C.ar    
  26 F26           -1.6308    -6.3854     4.1464 F       
  27 F27            0.4027    -7.5847     2.7603 F       
  28 H28           -3.2062    -0.7269     0.2950 H       
  29 H29           -3.5244     1.6742     0.3288 H       
  30 H30            0.1881    -2.3401    -0.0071 H       
  31 H31           -2.6123    -2.4627    -1.2153 H       
  32 H32           -1.0970    -2.2559    -2.1261 H       
  33 H33           -1.4086    -3.7735    -1.2498 H       
  34 H34           -3.4355     4.1196    -0.1303 H       
  35 H35           -3.3312     5.7412     1.8175 H       
  36 H36           -1.5399     5.3613     2.0376 H       
  37 H37           -1.0770     6.1785    -0.3187 H       
  38 H38           -2.8683     6.5583    -0.5388 H       
  39 H39           -2.3633    -4.0574     3.2219 H       
  40 H40            1.3002    -6.2181     0.7274 H       
  41 H41            0.4547    -4.0205     0.0100 H       
@<TRIPOS>BOND
   1    1    2 1
   2    1   12 2
   3    1    6 1
   4    2    9 1
   5    2    3 2
   6    3    4 1
   7    3    7 1
   8    4    5 2
   9    4   28 1
  10    5    6 1
  11    5   29 1
  12    6   14 1
  13    7    8 1
  14    7   11 1
  15    7   30 1
  16    8   10 1
  17    9   16 1
  18    9   17 1
  19    9   18 1
  20   10   21 ar
  21   10   25 ar
  22   11   31 1
  23   11   32 1
  24   11   33 1
  25   12   13 1
  26   13   14 2
  27   14   15 1
  28   15   19 1
  29   15   20 1
  30   15   34 1
  31   19   20 1
  32   19   35 1
  33   19   36 1
  34   20   37 1
  35   20   38 1
  36   21   22 ar
  37   21   39 1
  38   22   23 ar
  39   22   26 1
  40   23   24 ar
  41   23   27 1
  42   24   25 ar
  43   24   40 1
  44   25   41 1

#	End of record

