#	Name: ASD01440070
#	Creating user name:	WinNT
#	Creation time:	15. 06. 2019 19:21

#	Modifying user name:	WinNT
#	Modification time:	15. 06. 2019 19:21

#	Program:	/corina/corina34_cracker 3.40 0067  02.08.2006

@<TRIPOS>MOLECULE
ASD01440070
  41   43    0    0    0
SMALL
NO_CHARGES


@<TRIPOS>ATOM
   1 C1            -0.6077     1.6313    -0.2235 C.ar    
   2 C2            -0.5298     0.2872     0.0629 C.ar    
   3 C3             0.6343    -0.2432     0.6079 C.ar    
   4 C4             1.7242     0.5807     0.8660 C.ar    
   5 C5             1.6549     1.9260     0.5827 C.ar    
   6 C6             0.4861     2.4637     0.0345 C.ar    
   7 C7             0.4072     3.9045    -0.2707 C.2     
   8 O8            -0.3941     4.3092    -1.0907 O.2     
   9 C9             1.3021     4.8562     0.4202 C.ar    
  10 O10            0.7067    -1.5687     0.8891 O.3     
  11 C11            1.9319    -2.0474     1.4475 C.3     
  12 C12            1.8270    -3.5309     1.6914 C.2     
  13 N13            2.8702    -4.2027     2.2174 N.am    
  14 O14            0.8038    -4.1201     1.4143 O.2     
  15 C15            1.5791     6.1000    -0.1515 C.ar    
  16 C16            2.4148     6.9836     0.4990 C.ar    
  17 C17            2.9787     6.6400     1.7152 C.ar    
  18 C18            2.7089     5.4091     2.2871 C.ar    
  19 C19            1.8701     4.5183     1.6505 C.ar    
  20 C20            2.7414    -5.5604     2.5317 C.ar    
  21 C21            1.9410    -6.3931     1.7533 C.ar    
  22 C22            1.8455    -7.7296     2.1040 C.ar    
  23 C23            2.5419    -8.1900     3.2062 C.ar    
  24 N24            3.2915    -7.3755     3.9228 N.ar    
  25 C25            3.4142    -6.0983     3.6207 C.ar    
  26 H26           -1.5107     2.0417    -0.6509 H       
  27 H27           -1.3741    -0.3563    -0.1356 H       
  28 H28            2.6263     0.1647     1.2897 H       
  29 H29            2.5018     2.5653     0.7838 H       
  30 H30            2.7490    -1.8502     0.7536 H       
  31 H31            2.1252    -1.5369     2.3910 H       
  32 H32            3.7104    -3.7453     2.3782 H       
  33 H33            1.1402     6.3691    -1.1009 H       
  34 H34            2.6299     7.9458     0.0581 H       
  35 H35            3.6327     7.3355     2.2201 H       
  36 H36            3.1529     5.1470     3.2361 H       
  37 H37            1.6565     3.5599     2.1003 H       
  38 H38            1.4077    -6.0061     0.8976 H       
  39 H39            1.2338    -8.4043     1.5235 H       
  40 H40            2.4707    -9.2312     3.4843 H       
  41 H41            4.0411    -5.4630     4.2288 H       
@<TRIPOS>BOND
   1    1    2 ar
   2    1    6 ar
   3    1   26 1
   4    2    3 ar
   5    2   27 1
   6    3    4 ar
   7    3   10 1
   8    4    5 ar
   9    4   28 1
  10    5    6 ar
  11    5   29 1
  12    6    7 1
  13    7    8 2
  14    7    9 1
  15    9   15 ar
  16    9   19 ar
  17   10   11 1
  18   11   12 1
  19   11   30 1
  20   11   31 1
  21   12   13 am
  22   12   14 2
  23   13   20 1
  24   13   32 1
  25   15   16 ar
  26   15   33 1
  27   16   17 ar
  28   16   34 1
  29   17   18 ar
  30   17   35 1
  31   18   19 ar
  32   18   36 1
  33   19   37 1
  34   20   21 ar
  35   20   25 ar
  36   21   22 ar
  37   21   38 1
  38   22   23 ar
  39   22   39 1
  40   23   24 ar
  41   23   40 1
  42   24   25 ar
  43   25   41 1

#	End of record

