#	Name: ASD01940060
#	Creating user name:	WinNT
#	Creation time:	15. 06. 2019 20:11

#	Modifying user name:	WinNT
#	Modification time:	15. 06. 2019 20:11

#	Program:	/corina/corina34_cracker 3.40 0067  02.08.2006

@<TRIPOS>MOLECULE
ASD01940060
  38   39    0    0    0
SMALL
NO_CHARGES


@<TRIPOS>ATOM
   1 C1            -0.0140     1.4202     0.2388 C.ar    
   2 C2            -0.0967     0.4975     1.2738 C.ar    
   3 C3            -1.2812    -0.1742     1.5052 C.ar    
   4 C4            -2.3842     0.0710     0.7074 C.ar    
   5 C5            -2.3050     0.9895    -0.3243 C.ar    
   6 C6            -1.1256     1.6688    -0.5569 C.ar    
   7 N7             1.1830     2.1014     0.0020 N.pl3   
   8 C8             2.3900     1.4308     0.0914 C.2     
   9 C9             3.6631     1.9752     0.0019 C.2     
  10 C10            3.9129     3.4103    -0.2102 C.2     
  11 N11            4.0208     3.9096    -1.4914 N.pl3   
  12 N12            4.0324     4.2113     0.8156 N.2     
  13 C13            4.2695     5.3378    -1.7024 C.3     
  14 I14           -4.1783    -0.9513     1.0614 I       
  15 C15            5.7731     5.6104    -1.6268 C.3     
  16 C16            3.7453     5.7487    -3.0798 C.3     
  17 C17            4.6844     1.0328     0.1325 C.2     
  18 N18            4.3239    -0.2009     0.3162 N.2     
  19 S19            2.6304    -0.2533     0.3443 S.3     
  20 O20            5.9936     1.3895     0.0698 O.3     
  21 C21           -1.0404     2.6694    -1.6805 C.3     
  22 H22            0.7644     0.3051     1.8966 H       
  23 H23           -1.3461    -0.8917     2.3097 H       
  24 H24           -3.1679     1.1785    -0.9458 H       
  25 H25            1.1678     3.0444    -0.2249 H       
  26 H26            3.9321     3.3151    -2.2527 H       
  27 H27            4.1970     5.1569     0.6759 H       
  28 H28            3.7567     5.9136    -0.9319 H       
  29 H29            6.2859     5.0346    -2.3973 H       
  30 H30            5.9581     6.6730    -1.7838 H       
  31 H31            6.1465     5.3177    -0.6455 H       
  32 H32            2.6741     5.5545    -3.1337 H       
  33 H33            3.9303     6.8114    -3.2368 H       
  34 H34            4.2581     5.1729    -3.8503 H       
  35 H35            6.3795     1.6213     0.9256 H       
  36 H36           -1.3225     3.6554    -1.3111 H       
  37 H37           -0.0195     2.7024    -2.0610 H       
  38 H38           -1.7175     2.3743    -2.4820 H       
@<TRIPOS>BOND
   1    1    2 ar
   2    1    7 1
   3    1    6 ar
   4    2    3 ar
   5    2   22 1
   6    3    4 ar
   7    3   23 1
   8    4    5 ar
   9    4   14 1
  10    5    6 ar
  11    5   24 1
  12    6   21 1
  13    7    8 1
  14    7   25 1
  15    8    9 2
  16    8   19 1
  17    9   10 1
  18    9   17 1
  19   10   11 1
  20   10   12 2
  21   11   13 1
  22   11   26 1
  23   12   27 1
  24   13   15 1
  25   13   16 1
  26   13   28 1
  27   15   29 1
  28   15   30 1
  29   15   31 1
  30   16   32 1
  31   16   33 1
  32   16   34 1
  33   17   18 2
  34   17   20 1
  35   18   19 1
  36   20   35 1
  37   21   36 1
  38   21   37 1
  39   21   38 1

#	End of record

