#	Name: ASD05720120
#	Creating user name:	WinNT
#	Creation time:	15. 06. 2019 21:01

#	Modifying user name:	WinNT
#	Modification time:	15. 06. 2019 21:01

#	Program:	/corina/corina34_cracker 3.40 0067  02.08.2006

@<TRIPOS>MOLECULE
ASD05720120
  60   62    0    0    0
SMALL
NO_CHARGES


@<TRIPOS>ATOM
   1 N1             1.5665     0.8671     0.9209 N.pl3   
   2 N2             0.9030    -0.3074     0.5301 N.2     
   3 C3             0.2625    -0.0340    -0.5776 C.2     
   4 N4             0.4805     1.2352    -0.9075 N.2     
   5 C5             1.2677     1.7993    -0.0133 C.2     
   6 C6             2.4083     1.0484     2.1061 C.3     
   7 O7             3.7341     0.5971     1.8223 O.3     
   8 C8             4.6407     0.7307     2.9187 C.3     
   9 C9             6.0218     0.2195     2.5037 C.3     
  10 Si10           7.2038     0.3937     3.9331 Si      
  11 C11            6.5814    -0.6031     5.3786 C.3     
  12 C12            8.8855    -0.2287     3.4277 C.3     
  13 C13            7.3266     2.1871     4.4224 C.3     
  14 C14            1.7392     3.2002    -0.0280 C.ar    
  15 C15            3.1086     3.4786     0.0247 C.ar    
  16 C16            3.5466     4.7866     0.0109 C.ar    
  17 C17            2.6247     5.8310    -0.0555 C.ar    
  18 C18            1.2585     5.5554    -0.1082 C.ar    
  19 C19            0.8167     4.2486    -0.1004 C.ar    
  20 O20            2.3275     8.5096    -0.1352 O.3     
  21 B21            3.1254     7.3190    -0.0705 Du      
  22 O22            4.4812     7.7859    -0.0221 O.3     
  23 C23            4.4382     8.9437     0.8383 C.3     
  24 C24            2.9781     9.4344     0.7616 C.3     
  25 C25            2.9219    10.8547     0.1955 C.3     
  26 C26            2.3255     9.3842     2.1446 C.3     
  27 C27            4.7951     8.5544     2.2742 C.3     
  28 C28            5.3915    10.0249     0.3252 C.3     
  29 F29           -0.5065     3.9820    -0.1575 F       
  30 F30            4.0019     2.4672     0.0895 F       
  31 H31           -0.3467    -0.7295    -1.1358 H       
  32 H32            2.4338     2.1043     2.3755 H       
  33 H33            1.9978     0.4718     2.9350 H       
  34 H34            4.7126     1.7799     3.2050 H       
  35 H35            4.2765     0.1474     3.7645 H       
  36 H36            5.9499    -0.8298     2.2174 H       
  37 H37            6.3860     0.8028     1.6579 H       
  38 H38            6.5095    -1.6524     5.0924 H       
  39 H39            7.2729    -0.5012     6.2150 H       
  40 H40            5.5975    -0.2390     5.6743 H       
  41 H41            9.2497     0.3546     2.5819 H       
  42 H42            9.5770    -0.1268     4.2640 H       
  43 H43            8.8136    -1.2780     3.1414 H       
  44 H44            6.3427     2.5513     4.7181 H       
  45 H45            8.0182     2.2890     5.2587 H       
  46 H46            7.6908     2.7703     3.5766 H       
  47 H47            4.6041     5.0020     0.0520 H       
  48 H48            0.5461     6.3656    -0.1596 H       
  49 H49            1.8818    11.1644     0.0936 H       
  50 H50            3.4393    11.5358     0.8712 H       
  51 H51            3.4047    10.8758    -0.7815 H       
  52 H52            2.3885     8.3702     2.5395 H       
  53 H53            2.8442    10.0685     2.8161 H       
  54 H54            1.2791     9.6782     2.0634 H       
  55 H55            5.8093     8.1560     2.3012 H       
  56 H56            4.7330     9.4338     2.9152 H       
  57 H57            4.0973     7.7960     2.6291 H       
  58 H58            5.1135    10.3016    -0.6918 H       
  59 H59            5.3281    10.9011     0.9703 H       
  60 H60            6.4121     9.6421     0.3314 H       
@<TRIPOS>BOND
   1    1    2 1
   2    1    5 1
   3    1    6 1
   4    2    3 2
   5    3    4 1
   6    3   31 1
   7    4    5 2
   8    5   14 1
   9    6    7 1
  10    6   32 1
  11    6   33 1
  12    7    8 1
  13    8    9 1
  14    8   34 1
  15    8   35 1
  16    9   10 1
  17    9   36 1
  18    9   37 1
  19   10   11 1
  20   10   12 1
  21   10   13 1
  22   11   38 1
  23   11   39 1
  24   11   40 1
  25   12   41 1
  26   12   42 1
  27   12   43 1
  28   13   44 1
  29   13   45 1
  30   13   46 1
  31   14   15 ar
  32   14   19 ar
  33   15   16 ar
  34   15   30 1
  35   16   17 ar
  36   16   47 1
  37   17   18 ar
  38   17   21 1
  39   18   19 ar
  40   18   48 1
  41   19   29 1
  42   20   21 1
  43   20   24 1
  44   21   22 1
  45   22   23 1
  46   23   24 1
  47   23   27 1
  48   23   28 1
  49   24   25 1
  50   24   26 1
  51   25   49 1
  52   25   50 1
  53   25   51 1
  54   26   52 1
  55   26   53 1
  56   26   54 1
  57   27   55 1
  58   27   56 1
  59   27   57 1
  60   28   58 1
  61   28   59 1
  62   28   60 1

#	End of record

