#	Name: ASD03091966
#	Creating user name:	WinNT
#	Creation time:	15. 06. 2019 20:31

#	Modifying user name:	WinNT
#	Modification time:	15. 06. 2019 20:31

#	Program:	/corina/corina34_cracker 3.40 0067  02.08.2006

@<TRIPOS>MOLECULE
ASD03091966
  52   56    0    0    0
SMALL
NO_CHARGES


@<TRIPOS>ATOM
   1 C1            -0.0170     1.3990     0.0097 C.ar    
   2 C2            -1.2302     2.0682     0.0306 C.ar    
   3 C3            -2.4113     1.3476     0.0434 C.ar    
   4 C4            -2.3921    -0.0379     0.0355 C.ar    
   5 C5            -1.1921    -0.7189     0.0148 C.ar    
   6 C6             0.0021    -0.0041     0.0020 C.ar    
   7 O7             1.1634     2.0662     0.0020 O.3     
   8 C8             2.2625     1.4579     0.6803 C.3     
   9 N9             2.4083     0.0563     0.2863 N.am    
  10 C10            1.3145    -0.6822    -0.0142 C.2     
  11 C11           -3.6890    -0.8053     0.0500 C.3     
  12 C12           -4.2048    -0.9467    -1.3589 C.2     
  13 C13           -3.9323    -2.0690    -2.0783 C.2     
  14 C14           -4.9748     0.0769    -1.9357 C.2     
  15 C15           -5.4393    -0.0450    -3.1967 C.2     
  16 N16           -5.1698    -1.1629    -3.9328 N.pl3   
  17 C17           -4.4244    -2.1794    -3.3928 C.2     
  18 O18            1.4088    -1.8632    -0.2876 O.2     
  19 C19            3.7407    -0.5489     0.2168 C.3     
  20 C20            3.8132    -1.7400     1.1772 C.3     
  21 C21            5.1812    -2.4134     1.0403 C.3     
  22 C22            4.0067    -1.0402    -1.2094 C.3     
  23 C23            5.3672    -1.7406    -1.2542 C.3     
  24 O24            5.3776    -2.8185    -0.3160 O.3     
  25 O25            4.0133     0.0736    -2.1047 O.3     
  26 C26           -3.7303     2.0760     0.0668 C.3     
  27 N27           -5.5188    -1.5440    -5.2344 N.2     
  28 C28           -5.0098    -2.7307    -5.4821 C.2     
  29 C29           -4.3235    -3.1701    -4.3615 C.2     
  30 F30           -1.2596     3.4188     0.0388 F       
  31 H31           -1.1796    -1.7988     0.0090 H       
  32 H32            3.1777     1.9963     0.4343 H       
  33 H33            2.0941     1.5120     1.7559 H       
  34 H34           -3.5212    -1.7943     0.4764 H       
  35 H35           -4.4217    -0.2691     0.6531 H       
  36 H36           -3.3450    -2.8657    -1.6461 H       
  37 H37           -5.1967     0.9672    -1.3660 H       
  38 H38           -6.0304     0.7494    -3.6278 H       
  39 H39            4.4920     0.1907     0.4938 H       
  40 H40            3.6799    -1.3910     2.2012 H       
  41 H41            3.0287    -2.4553     0.9302 H       
  42 H42            5.9630    -1.7098     1.3264 H       
  43 H43            5.2228    -3.2874     1.6903 H       
  44 H44            3.2261    -1.7413    -1.5047 H       
  45 H45            5.5428    -2.1299    -2.2570 H       
  46 H46            6.1514    -1.0282    -0.9981 H       
  47 H47            4.1764    -0.1646    -3.0276 H       
  48 H48           -4.0632     2.2577    -0.9551 H       
  49 H49           -4.4712     1.4696     0.5879 H       
  50 H50           -3.6107     3.0277     0.5846 H       
  51 H51           -5.1153    -3.2777    -6.4073 H       
  52 H52           -3.8015    -4.1102    -4.2609 H       
@<TRIPOS>BOND
   1    1    6 ar
   2    1    7 1
   3    1    2 ar
   4    2    3 ar
   5    2   30 1
   6    3    4 ar
   7    3   26 1
   8    4    5 ar
   9    4   11 1
  10    5    6 ar
  11    5   31 1
  12    6   10 1
  13    7    8 1
  14    8    9 1
  15    8   32 1
  16    8   33 1
  17    9   10 am
  18    9   19 1
  19   10   18 2
  20   11   12 1
  21   11   34 1
  22   11   35 1
  23   12   14 1
  24   12   13 2
  25   13   17 1
  26   13   36 1
  27   14   15 2
  28   14   37 1
  29   15   16 1
  30   15   38 1
  31   16   27 1
  32   16   17 1
  33   17   29 2
  34   19   22 1
  35   19   20 1
  36   19   39 1
  37   20   21 1
  38   20   40 1
  39   20   41 1
  40   21   24 1
  41   21   42 1
  42   21   43 1
  43   22   23 1
  44   22   25 1
  45   22   44 1
  46   23   24 1
  47   23   45 1
  48   23   46 1
  49   25   47 1
  50   26   48 1
  51   26   49 1
  52   26   50 1
  53   27   28 2
  54   28   29 1
  55   28   51 1
  56   29   52 1

#	End of record

