#	Name: ASD05723017
#	Creating user name:	WinNT
#	Creation time:	15. 06. 2019 21:02

#	Modifying user name:	WinNT
#	Modification time:	15. 06. 2019 21:02

#	Program:	/corina/corina34_cracker 3.40 0067  02.08.2006

@<TRIPOS>MOLECULE
ASD05723017
 160  163    0    0    0
SMALL
NO_CHARGES


@<TRIPOS>ATOM
   1 C1            -4.9974     1.6275    -0.6501 C.2     
   2 C2            -5.3296     0.1602    -0.5632 C.3     
   3 C3            -5.8405    -0.3283    -1.9202 C.3     
   4 O4            -5.1532     2.2216    -1.6906 O.2     
   5 O5            -4.5335     2.2757     0.4299 O.3     
   6 C6            -4.0742    -0.6251    -0.1782 C.3     
   7 C7            -6.4115    -0.0559     0.4969 C.3     
   8 O8            -7.5840     0.6775     0.1373 O.3     
   9 O9            -6.1556    -1.7197    -1.8378 O.3     
  10 C10           -4.2345     3.6879     0.2732 C.3     
  11 C11           -4.4517     4.4062     1.6065 C.3     
  12 C12           -4.1366     5.8943     1.4414 C.3     
  13 C13           -2.6803     6.0616     1.0033 C.3     
  14 C14           -2.4631     5.3433    -0.3301 C.3     
  15 C15           -2.7782     3.8552    -0.1649 C.3     
  16 O16           -5.8119     4.2499     2.0157 O.3     
  17 C17           -5.9958     4.2469     3.4329 C.3     
  18 C18           -2.3652     7.5497     0.8381 C.3     
  19 C19           -2.4439     8.2419     2.2003 C.3     
  20 C20           -1.3551     7.6844     3.1194 C.3     
  21 O21           -3.2776    10.2745     1.1615 O.3     
  22 C22           -3.0982    10.2471    -0.1669 C.2     
  23 C23           -4.1959    10.7594    -1.0615 C.3     
  24 N24           -3.7130    10.9404    -2.4344 N.am    
  25 C25           -2.7675    11.8435    -2.7274 C.2     
  26 C26           -2.5696    12.3744    -4.0953 C.2     
  27 C27           -1.3041    13.0446    -4.5454 C.3     
  28 C28           -1.1904    12.9342    -6.0664 C.3     
  29 C29            0.0324    13.7024    -6.5692 C.3     
  30 C30           -0.0137    15.1446    -6.0603 C.3     
  31 C31           -0.0991    15.1317    -4.5297 C.3     
  32 C32           -0.1797    16.5598    -3.9986 C.3     
  33 C33            1.1895    17.2369    -3.9839 C.3     
  34 C34            1.4132    17.8503    -2.6193 C.2     
  35 C35            2.3365    17.3586    -1.8024 C.2     
  36 C36            2.5433    17.9028    -0.4585 C.2     
  37 C37            3.5343    17.4121     0.3122 C.2     
  38 C38            3.6770    17.8617     1.7062 C.2     
  39 C39            4.6480    17.3438     2.4461 C.2     
  40 C40            4.8817    17.6545     3.8948 C.3     
  41 C41            4.8253    16.3702     4.7248 C.3     
  42 C42            3.5525    15.5674     4.4783 C.3     
  43 C43            3.2047    14.7754     5.7188 C.2     
  44 C44            1.9911    13.8790     5.7361 C.3     
  45 C45            2.1576    12.7913     6.7981 C.3     
  46 C46            0.9575    11.8706     6.8001 C.2     
  47 C47            0.3179    11.6487     5.6807 C.2     
  48 C48           -0.8745    10.7343     5.5624 C.3     
  49 C49           -1.0138    10.2937     4.1236 C.2     
  50 C50           -2.3183    10.4308     3.3888 C.3     
  51 C51           -2.2375     9.7487     2.0200 C.3     
  52 C52           -5.3481     9.7433    -1.0618 C.3     
  53 C53           -6.3890    10.1585    -2.0951 C.3     
  54 C54           -5.8025    10.2245    -3.4964 C.3     
  55 C55           -4.2855    10.0848    -3.4884 C.3     
  56 O56           -1.2887    14.4158    -4.1511 O.3     
  57 O57           -2.0458    12.2506    -1.8311 O.2     
  58 O58           -3.4864    12.3097    -4.8804 O.2     
  59 O59            3.9006    14.8581     6.6999 O.2     
  60 O60           -0.0473     9.8194     3.5633 O.2     
  61 O61           -2.0744     9.8199    -0.6453 O.2     
  62 C62           -1.0390    11.4614    -6.4595 C.3     
  63 C63            0.5789    19.0393    -2.2135 C.3     
  64 C64            3.8789    18.6729     4.4285 C.3     
  65 C65            3.7939    14.5719     3.3341 C.3     
  66 C66            0.5221    11.2383     8.0959 C.3     
  67 C67           -2.1356    11.4882     5.9834 C.3     
  68 O68            2.2202    16.2965    -4.2676 O.3     
  69 C69            3.3574    16.8608    -4.9237 C.3     
  70 O70            0.8322    14.6550     6.0403 O.3     
  71 C71            0.1765    15.1953     4.8914 C.3     
  72 O72           -0.1856    12.3747    -3.9505 O.3     
  73 O73            3.3298    12.0223     6.5323 O.3     
  74 H74            0.7670    14.6194    -4.1193 H       
  75 H75           -4.5651    11.7058    -0.6745 H       
  76 H76           -6.7349     0.2312    -2.1945 H       
  77 H77           -5.0698    -0.1743    -2.6755 H       
  78 H78           -3.7103    -0.2771     0.7885 H       
  79 H79           -4.3146    -1.6864    -0.1154 H       
  80 H80           -3.3035    -0.4712    -0.9335 H       
  81 H81           -6.6518    -1.1172     0.5597 H       
  82 H82           -6.0475     0.2921     1.4636 H       
  83 H83           -8.3130     0.5868     0.7661 H       
  84 H84           -6.4863    -2.0976    -2.6642 H       
  85 H85           -4.8928     4.1170    -0.4822 H       
  86 H86           -3.7934     3.9771     2.3619 H       
  87 H87           -4.7949     6.3234     0.6860 H       
  88 H88           -4.2913     6.4060     2.3913 H       
  89 H89           -2.0220     5.6325     1.7586 H       
  90 H90           -3.1213     5.7725    -1.0854 H       
  91 H91           -1.4255     5.4625    -0.6422 H       
  92 H92           -2.1199     3.4261     0.5904 H       
  93 H93           -2.6234     3.3435    -1.1148 H       
  94 H94           -5.4316     3.4235     3.8707 H       
  95 H95           -5.6418     5.1908     3.8472 H       
  96 H96           -7.0545     4.1240     3.6616 H       
  97 H97           -1.3614     7.6653     0.4293 H       
  98 H98           -3.0884     8.0010     0.1589 H       
  99 H99           -3.4225     8.0598     2.6444 H       
 100 H100          -1.4534     6.6008     3.1834 H       
 101 H101          -0.3746     7.9371     2.7159 H       
 102 H102          -1.4616     8.1183     4.1136 H       
 103 H103          -2.0875    13.3413    -6.5320 H       
 104 H104           0.9395    13.2176    -6.2072 H       
 105 H105           0.0366    13.7033    -7.6602 H       
 106 H106           0.8881    15.6700    -6.3723 H       
 107 H107          -0.8900    15.6466    -6.4707 H       
 108 H108          -0.8641    17.1359    -4.6260 H       
 109 H109          -0.5849    16.5323    -2.9816 H       
 110 H110           1.2030    18.0360    -4.7319 H       
 111 H111           2.9490    16.5196    -2.1206 H       
 112 H112           1.9221    18.6915    -0.0641 H       
 113 H113           4.2258    16.6915    -0.0972 H       
 114 H114           2.9854    18.6056     2.0677 H       
 115 H115           5.3355    16.6450     1.9565 H       
 116 H116           5.8963    18.0784     3.9923 H       
 117 H117           5.6956    15.7578     4.4504 H       
 118 H118           4.9022    16.6166     5.7844 H       
 119 H119           2.7199    16.2163     4.2189 H       
 120 H120           1.8689    13.4128     4.7598 H       
 121 H121           2.2526    13.2591     7.7797 H       
 122 H122           0.6570    12.1614     4.7796 H       
 123 H123          -0.7321     9.8564     6.1897 H       
 124 H124          -3.1105     9.9404     3.9669 H       
 125 H125          -2.5647    11.4843     3.2474 H       
 126 H126          -1.2625     9.9241     1.5774 H       
 127 H127          -4.9656     8.7529    -1.3033 H       
 128 H128          -5.8109     9.7187    -0.0730 H       
 129 H129          -7.2060     9.4349    -2.0899 H       
 130 H130          -6.7834    11.1406    -1.8302 H       
 131 H131          -6.2282     9.4225    -4.1004 H       
 132 H132          -6.0696    11.1827    -3.9446 H       
 133 H133          -3.8853    10.3538    -4.4596 H       
 134 H134          -4.0297     9.0425    -3.2718 H       
 135 H135          -1.9104    10.9028    -6.1181 H       
 136 H136          -0.9578    11.3813    -7.5436 H       
 137 H137          -0.1409    11.0523    -5.9967 H       
 138 H138          -0.3277    18.6943    -1.7163 H       
 139 H139           1.1505    19.6685    -1.5313 H       
 140 H140           0.3108    19.6145    -3.0997 H       
 141 H141           2.8686    18.2775     4.3235 H       
 142 H142           4.0849    18.8686     5.4808 H       
 143 H143           3.9668    19.6003     3.8625 H       
 144 H144           4.6048    13.8959     3.6057 H       
 145 H145           2.8856    13.9964     3.1555 H       
 146 H146           4.0627    15.1167     2.4291 H       
 147 H147          -0.1981    11.8880     8.5932 H       
 148 H148           0.0598    10.2726     7.8916 H       
 149 H149           1.3895    11.0967     8.7406 H       
 150 H150          -2.2748    12.3538     5.3356 H       
 151 H151          -2.9989    10.8282     5.8983 H       
 152 H152          -2.0325    11.8204     7.0164 H       
 153 H153           3.0493    17.2968    -5.8740 H       
 154 H154           3.7935    17.6354    -4.2930 H       
 155 H155           4.0967    16.0805    -5.1046 H       
 156 H156          -0.6935    15.7712     5.2068 H       
 157 H157           0.8657    15.8446     4.3514 H       
 158 H158          -0.1429    14.3823     4.2394 H       
 159 H159          -0.1906    12.3837    -2.9835 H       
 160 H160           3.4899    11.3154     7.1725 H       
@<TRIPOS>BOND
   1    1    2 1
   2    1    4 2
   3    1    5 1
   4    2    3 1
   5    2    6 1
   6    2    7 1
   7    3    9 1
   8    3   76 1
   9    3   77 1
  10    5   10 1
  11    6   78 1
  12    6   79 1
  13    6   80 1
  14    7    8 1
  15    7   81 1
  16    7   82 1
  17    8   83 1
  18    9   84 1
  19   10   11 1
  20   10   15 1
  21   10   85 1
  22   11   12 1
  23   11   16 1
  24   11   86 1
  25   12   13 1
  26   12   87 1
  27   12   88 1
  28   13   14 1
  29   13   18 1
  30   13   89 1
  31   14   15 1
  32   14   90 1
  33   14   91 1
  34   15   92 1
  35   15   93 1
  36   16   17 1
  37   17   94 1
  38   17   95 1
  39   17   96 1
  40   18   19 1
  41   18   97 1
  42   18   98 1
  43   19   20 1
  44   19   51 1
  45   19   99 1
  46   20  100 1
  47   20  101 1
  48   20  102 1
  49   21   22 1
  50   21   51 1
  51   22   23 1
  52   22   61 2
  53   23   24 1
  54   23   52 1
  55   23   75 1
  56   24   25 am
  57   24   55 1
  58   25   26 1
  59   25   57 2
  60   26   27 1
  61   26   58 2
  62   27   56 1
  63   27   72 1
  64   27   28 1
  65   28   29 1
  66   28   62 1
  67   28  103 1
  68   29   30 1
  69   29  104 1
  70   29  105 1
  71   30   31 1
  72   30  106 1
  73   30  107 1
  74   31   32 1
  75   31   56 1
  76   31   74 1
  77   32   33 1
  78   32  108 1
  79   32  109 1
  80   33   34 1
  81   33   68 1
  82   33  110 1
  83   34   35 2
  84   34   63 1
  85   35   36 1
  86   35  111 1
  87   36   37 2
  88   36  112 1
  89   37   38 1
  90   37  113 1
  91   38   39 2
  92   38  114 1
  93   39   40 1
  94   39  115 1
  95   40   41 1
  96   40   64 1
  97   40  116 1
  98   41   42 1
  99   41  117 1
 100   41  118 1
 101   42   43 1
 102   42   65 1
 103   42  119 1
 104   43   44 1
 105   43   59 2
 106   44   45 1
 107   44   70 1
 108   44  120 1
 109   45   46 1
 110   45   73 1
 111   45  121 1
 112   46   47 2
 113   46   66 1
 114   47   48 1
 115   47  122 1
 116   48   49 1
 117   48   67 1
 118   48  123 1
 119   49   50 1
 120   49   60 2
 121   50   51 1
 122   50  124 1
 123   50  125 1
 124   51  126 1
 125   52   53 1
 126   52  127 1
 127   52  128 1
 128   53   54 1
 129   53  129 1
 130   53  130 1
 131   54   55 1
 132   54  131 1
 133   54  132 1
 134   55  133 1
 135   55  134 1
 136   62  135 1
 137   62  136 1
 138   62  137 1
 139   63  138 1
 140   63  139 1
 141   63  140 1
 142   64  141 1
 143   64  142 1
 144   64  143 1
 145   65  144 1
 146   65  145 1
 147   65  146 1
 148   66  147 1
 149   66  148 1
 150   66  149 1
 151   67  150 1
 152   67  151 1
 153   67  152 1
 154   68   69 1
 155   69  153 1
 156   69  154 1
 157   69  155 1
 158   70   71 1
 159   71  156 1
 160   71  157 1
 161   71  158 1
 162   72  159 1
 163   73  160 1

#	End of record

