#	Name: ASD08178051
#	Creating user name:	WinNT
#	Creation time:	15. 06. 2019 21:18

#	Modifying user name:	WinNT
#	Modification time:	15. 06. 2019 21:18

#	Program:	/corina/corina34_cracker 3.40 0067  02.08.2006

@<TRIPOS>MOLECULE
ASD08178051
  63   66    0    0    0
SMALL
NO_CHARGES


@<TRIPOS>ATOM
   1 C1            -0.0167     1.3781     0.0096 C.ar    
   2 C2            15.1748     6.7725    -8.6139 C.ar    
   3 N3             2.1560     3.4169    -4.0449 N.2     
   4 N4             2.4593     3.6530    -5.2475 N.2     
   5 C5             2.3765     2.2199    -3.5913 C.2     
   6 S6             3.0542     1.2728    -4.8476 S.3     
   7 C7             2.9664     2.6697    -5.9210 C.2     
   8 N8             2.1071     1.7801    -2.2997 N.am    
   9 C9             1.5700     2.6259    -1.3981 C.2     
  10 O10            1.3217     3.7704    -1.7132 O.2     
  11 C11            1.2780     2.1493     0.0014 C.3     
  12 C12            3.4020     2.7114    -7.3631 C.3     
  13 C13            4.8731     3.1248    -7.4398 C.3     
  14 S14            5.3974     3.1749    -9.1756 S.3     
  15 C15            7.1373     3.6755    -9.0620 C.3     
  16 C16            7.7350     3.7653   -10.4676 C.3     
  17 C17            9.1804     4.1812   -10.3732 C.2     
  18 N18           10.1985     3.3873   -10.2686 N.2     
  19 S19            9.7902     5.8362   -10.3930 S.3     
  20 C20           11.3855     5.2296   -10.2459 C.2     
  21 N21           11.3353     3.9324   -10.2020 N.2     
  22 N22           12.5430     5.9984   -10.1885 N.am    
  23 C23           13.7447     5.3994   -10.0719 C.2     
  24 O24           13.8167     4.1900   -10.0170 O.2     
  25 C25           14.9990     6.2325   -10.0098 C.3     
  26 N26           16.1573     5.4006   -10.3625 N.3     
  27 C27           14.8085     8.0737    -8.3250 C.ar    
  28 C28           14.9698     8.5691    -7.0446 C.ar    
  29 C29           15.4969     7.7630    -6.0530 C.ar    
  30 C30           15.8623     6.4615    -6.3417 C.ar    
  31 C31           15.6970     5.9648    -7.6211 C.ar    
  32 C32            0.0021    -0.0041     0.0020 C.ar    
  33 C33           -1.1855    -0.7115     0.0095 C.ar    
  34 C34           -2.3919    -0.0367     0.0251 C.ar    
  35 C35           -2.4106     1.3455     0.0336 C.ar    
  36 C36           -1.2230     2.0529     0.0305 C.ar    
  37 N37            1.1643     3.3066     0.8990 N.3     
  38 H38            2.3057     0.8647    -2.0477 H       
  39 H39            2.0877     1.5037     0.3417 H       
  40 H40            3.2783     1.7243    -7.8087 H       
  41 H41            2.7927     3.4340    -7.9060 H       
  42 H42            4.9968     4.1119    -6.9942 H       
  43 H43            5.4823     2.4022    -6.8969 H       
  44 H44            7.2043     4.6488    -8.5758 H       
  45 H45            7.6899     2.9391    -8.4785 H       
  46 H46            7.6679     2.7920   -10.9537 H       
  47 H47            7.1824     4.5017   -11.0510 H       
  48 H48           12.4855     6.9657   -10.2325 H       
  49 H49           14.9197     7.0617   -10.7129 H       
  50 H50           17.0025     5.9510   -10.3910 H       
  51 H51           16.2526     4.6244    -9.7250 H       
  52 H52           14.3967     8.7035    -9.0998 H       
  53 H53           14.6843     9.5860    -6.8190 H       
  54 H54           15.6236     8.1503    -5.0528 H       
  55 H55           16.2745     5.8319    -5.5670 H       
  56 H56           15.9825     4.9479    -7.8466 H       
  57 H57            0.9446    -0.5313    -0.0101 H       
  58 H58           -1.1709    -1.7913     0.0029 H       
  59 H59           -3.3198    -0.5893     0.0302 H       
  60 H60           -3.3531     1.8728     0.0454 H       
  61 H61           -1.2376     3.1328     0.0372 H       
  62 H62            2.0402     3.8037     0.9609 H       
  63 H63            0.4200     3.9209     0.6045 H       
@<TRIPOS>BOND
   1    1   32 ar
   2    1   11 1
   3    1   36 ar
   4    2   27 ar
   5    2   25 1
   6    2   31 ar
   7    3    4 1
   8    3    5 2
   9    4    7 2
  10    5    6 1
  11    5    8 1
  12    6    7 1
  13    7   12 1
  14    8    9 am
  15    8   38 1
  16    9   10 2
  17    9   11 1
  18   11   37 1
  19   11   39 1
  20   12   13 1
  21   12   40 1
  22   12   41 1
  23   13   14 1
  24   13   42 1
  25   13   43 1
  26   14   15 1
  27   15   16 1
  28   15   44 1
  29   15   45 1
  30   16   17 1
  31   16   46 1
  32   16   47 1
  33   17   18 2
  34   17   19 1
  35   18   21 1
  36   19   20 1
  37   20   21 2
  38   20   22 1
  39   22   23 am
  40   22   48 1
  41   23   24 2
  42   23   25 1
  43   25   26 1
  44   25   49 1
  45   26   50 1
  46   26   51 1
  47   27   28 ar
  48   27   52 1
  49   28   29 ar
  50   28   53 1
  51   29   30 ar
  52   29   54 1
  53   30   31 ar
  54   30   55 1
  55   31   56 1
  56   32   33 ar
  57   32   57 1
  58   33   34 ar
  59   33   58 1
  60   34   35 ar
  61   34   59 1
  62   35   36 ar
  63   35   60 1
  64   36   61 1
  65   37   62 1
  66   37   63 1

#	End of record

