#	Name: ASD00069228
#	Creating user name:	WinNT
#	Creation time:	15. 06. 2019 18:29

#	Modifying user name:	WinNT
#	Modification time:	15. 06. 2019 18:29

#	Program:	/corina/corina34_cracker 3.40 0067  02.08.2006

@<TRIPOS>MOLECULE
ASD00069228
  76   80    0    0    0
SMALL
NO_CHARGES


@<TRIPOS>ATOM
   1 C1             0.1826     0.9699    -0.7876 C.2     
   2 N2            -0.1436    -0.2993    -0.8795 N.2     
   3 C3             0.9354    -1.0484    -0.6165 C.2     
   4 C4             1.9845    -0.1971    -0.3476 C.2     
   5 N5             1.5061     1.0617    -0.4566 N.pl3   
   6 C6            -0.7275     2.1084    -1.0110 C.2     
   7 O7            -0.3156     3.2472    -0.8987 O.2     
   8 N8            -2.0157     1.8871    -1.3396 N.am    
   9 C9             2.1863    -4.4862    -0.3318 C.ar    
  10 N10            2.1299    -3.1637    -0.3354 N.ar    
  11 C11            0.9906    -2.5298    -0.6150 C.ar    
  12 C12           -0.1476    -3.2797    -0.9052 C.ar    
  13 C13           -0.0466    -4.6693    -0.8911 C.ar    
  14 N14            1.1246    -5.2305    -0.6029 N.ar    
  15 N15            3.3884    -5.1081    -0.0425 N.pl3   
  16 C16            4.5764    -4.3038     0.2544 C.3     
  17 N17           -1.1519    -5.4565    -1.1730 N.3     
  18 C18           -0.8126    -6.8895    -1.0997 C.3     
  19 C19           -1.7675    -7.5335    -0.0726 C.3     
  20 C20           -2.9650    -6.5476    -0.0426 C.3     
  21 C21           -2.2523    -5.1842    -0.2239 C.3     
  22 O22           -1.1474    -7.6145     1.2123 O.3     
  23 C23           -1.9656    -8.2200     2.2153 C.3     
  24 C24           -2.2109    -8.8963    -0.5388 C.2     
  25 N25           -1.4250    -9.9702    -0.3255 N.am    
  26 O26           -3.2749    -9.0266    -1.1060 O.2     
  27 C27           -2.9047     2.9633    -1.4514 C.ar    
  28 C28           -4.0927     2.8173    -2.1665 C.ar    
  29 C29           -4.9696     3.8885    -2.2735 C.ar    
  30 C30           -4.6625     5.0962    -1.6709 C.ar    
  31 C31           -3.4840     5.2393    -0.9620 C.ar    
  32 C32           -2.6084     4.1759    -0.8461 C.ar    
  33 F33           -6.1218     3.7522    -2.9657 F       
  34 N34           -4.4002     1.5939    -2.7755 N.3     
  35 C35           -5.6559     1.0446    -2.2483 C.3     
  36 C36           -5.8849    -0.3539    -2.8262 C.3     
  37 C37           -5.9461    -0.2659    -4.3536 C.3     
  38 C38           -4.6462     0.3540    -4.8738 C.3     
  39 C39           -4.4531     1.7320    -4.2365 C.3     
  40 C40           -6.1140    -1.6689    -4.9403 C.3     
  41 N41           -6.2926    -1.5731    -6.3953 N.3     
  42 H42            2.9959    -0.4815    -0.0976 H       
  43 H43            2.0093     1.8804    -0.3245 H       
  44 H44           -2.3271     0.9823    -1.4986 H       
  45 H45           -1.0852    -2.7955    -1.1352 H       
  46 H46            3.4444    -6.0765    -0.0363 H       
  47 H47            5.4206    -4.9633     0.4558 H       
  48 H48            4.8078    -3.6682    -0.6003 H       
  49 H49            4.3847    -3.6816     1.1286 H       
  50 H50           -0.9506    -7.3536    -2.0762 H       
  51 H51            0.2200    -7.0097    -0.7721 H       
  52 H52           -3.6515    -6.7419    -0.8667 H       
  53 H53           -3.4840    -6.5927     0.9148 H       
  54 H54           -1.8541    -4.8346     0.7287 H       
  55 H55           -2.9403    -4.4489    -0.6413 H       
  56 H56           -2.9017    -7.6685     2.3023 H       
  57 H57           -2.1767    -9.2526     1.9374 H       
  58 H58           -1.4423    -8.2008     3.1713 H       
  59 H59           -0.5434    -9.8565     0.0628 H       
  60 H60           -1.7409   -10.8567    -0.5602 H       
  61 H61           -5.3450     5.9290    -1.7548 H       
  62 H62           -3.2487     6.1837    -0.4939 H       
  63 H63           -1.6912     4.2904    -0.2875 H       
  64 H64           -5.5976     0.9834    -1.1616 H       
  65 H65           -6.4838     1.6946    -2.5314 H       
  66 H66           -5.0642    -1.0081    -2.5320 H       
  67 H67           -6.8247    -0.7550    -2.4469 H       
  68 H68           -6.7904     0.3570    -4.6491 H       
  69 H69           -3.8060    -0.2890    -4.6118 H       
  70 H70           -4.7010     0.4587    -5.9574 H       
  71 H71           -5.2867     2.3787    -4.5103 H       
  72 H72           -3.5212     2.1700    -4.5939 H       
  73 H73           -5.2266    -2.2628    -4.7215 H       
  74 H74           -6.9886    -2.1456    -4.4975 H       
  75 H75           -5.5244    -1.0772    -6.8220 H       
  76 H76           -6.4057    -2.4875    -6.8067 H       
@<TRIPOS>BOND
   1    1    2 2
   2    1    5 1
   3    1    6 1
   4    2    3 1
   5    3    4 2
   6    3   11 1
   7    4    5 1
   8    4   42 1
   9    5   43 1
  10    6    7 2
  11    6    8 am
  12    8   27 1
  13    8   44 1
  14    9   10 ar
  15    9   14 ar
  16    9   15 1
  17   10   11 ar
  18   11   12 ar
  19   12   13 ar
  20   12   45 1
  21   13   14 ar
  22   13   17 1
  23   15   16 1
  24   15   46 1
  25   16   47 1
  26   16   48 1
  27   16   49 1
  28   17   18 1
  29   17   21 1
  30   18   19 1
  31   18   50 1
  32   18   51 1
  33   19   20 1
  34   19   22 1
  35   19   24 1
  36   20   21 1
  37   20   52 1
  38   20   53 1
  39   21   54 1
  40   21   55 1
  41   22   23 1
  42   23   56 1
  43   23   57 1
  44   23   58 1
  45   24   25 am
  46   24   26 2
  47   25   59 1
  48   25   60 1
  49   27   28 ar
  50   27   32 ar
  51   28   29 ar
  52   28   34 1
  53   29   30 ar
  54   29   33 1
  55   30   31 ar
  56   30   61 1
  57   31   32 ar
  58   31   62 1
  59   32   63 1
  60   34   35 1
  61   34   39 1
  62   35   36 1
  63   35   64 1
  64   35   65 1
  65   36   37 1
  66   36   66 1
  67   36   67 1
  68   37   38 1
  69   37   40 1
  70   37   68 1
  71   38   39 1
  72   38   69 1
  73   38   70 1
  74   39   71 1
  75   39   72 1
  76   40   41 1
  77   40   73 1
  78   40   74 1
  79   41   75 1
  80   41   76 1

#	End of record

