#	Name: ASD07300976
#	Creating user name:	WinNT
#	Creation time:	15. 06. 2019 21:10

#	Modifying user name:	WinNT
#	Modification time:	15. 06. 2019 21:10

#	Program:	/corina/corina34_cracker 3.40 0067  02.08.2006

@<TRIPOS>MOLECULE
ASD07300976
  33   34    0    0    0
SMALL
NO_CHARGES


@<TRIPOS>ATOM
   1 C1             0.0252     1.4041    -0.3144 C.2     
   2 C2             0.0458    -0.0002    -0.3337 C.2     
   3 C3             1.2256    -0.6298    -0.0204 C.2     
   4 C4             2.3791     0.2154     0.3118 C.2     
   5 N5             2.2442     1.5262     0.2979 N.2     
   6 N6             1.1331     2.0948     0.0025 N.am    
   7 O7            -1.0030     1.9999    -0.5918 O.2     
   8 C8             1.0724     3.4922     0.0106 C.ar    
   9 C9             1.5602     4.2041     1.0995 C.ar    
  10 C10            1.4986     5.5834     1.1042 C.ar    
  11 C11            0.9521     6.2566     0.0265 C.ar    
  12 C12            0.4653     5.5512    -1.0586 C.ar    
  13 C13            0.5294     4.1716    -1.0725 C.ar    
  14 C14            2.0269     6.3564     2.2851 C.3     
  15 F15            3.3795     6.6506     2.0824 F       
  16 F16            1.3062     7.5475     2.4230 F       
  17 F17            1.8856     5.5886     3.4460 F       
  18 O18            1.3211    -1.9798    -0.0176 O.3     
  19 C19            0.1425    -2.7143    -0.3543 C.3     
  20 C20            3.6712    -0.3942     0.6568 C.2     
  21 O21            3.7884    -1.6013     0.6680 O.2     
  22 C22            4.8503     0.4806     0.9965 C.3     
  23 H23           -0.8382    -0.5670    -0.5864 H       
  24 H24            1.9867     3.6791     1.9414 H       
  25 H25            0.9051     7.3355     0.0328 H       
  26 H26            0.0386     6.0799    -1.8981 H       
  27 H27            0.1534     3.6215    -1.9225 H       
  28 H28           -0.6496    -2.4753     0.3553 H       
  29 H29           -0.1781    -2.4454    -1.3608 H       
  30 H30            0.3561    -3.7824    -0.3141 H       
  31 H31            4.5557     1.5281     0.9337 H       
  32 H32            5.1880     0.2582     2.0088 H       
  33 H33            5.6602     0.2881     0.2928 H       
@<TRIPOS>BOND
   1    1    2 1
   2    1    6 am
   3    1    7 2
   4    2    3 2
   5    2   23 1
   6    3    4 1
   7    3   18 1
   8    4    5 2
   9    4   20 1
  10    5    6 1
  11    6    8 1
  12    8    9 ar
  13    8   13 ar
  14    9   10 ar
  15    9   24 1
  16   10   11 ar
  17   10   14 1
  18   11   12 ar
  19   11   25 1
  20   12   13 ar
  21   12   26 1
  22   13   27 1
  23   14   15 1
  24   14   16 1
  25   14   17 1
  26   18   19 1
  27   19   28 1
  28   19   29 1
  29   19   30 1
  30   20   21 2
  31   20   22 1
  32   22   31 1
  33   22   32 1
  34   22   33 1

#	End of record

