#	Name: ASD04590820
#	Creating user name:	WinNT
#	Creation time:	15. 06. 2019 20:51

#	Modifying user name:	WinNT
#	Modification time:	15. 06. 2019 20:51

#	Program:	/corina/corina34_cracker 3.40 0067  02.08.2006

@<TRIPOS>MOLECULE
ASD04590820
  54   58    0    0    0
SMALL
NO_CHARGES


@<TRIPOS>ATOM
   1 C1            -0.2683     1.7954    -0.1638 C.2     
   2 C2             0.2873     0.4596     0.1184 C.ar    
   3 C3            -0.4292    -0.4617     0.8913 C.ar    
   4 C4             0.1360    -1.7022     1.1269 C.ar    
   5 C5             1.3807    -1.9957     0.5980 C.ar    
   6 N6             2.0402    -1.1141    -0.1273 N.ar    
   7 C7             1.5436     0.0855    -0.3885 C.ar    
   8 O8             0.4173     2.6352    -0.7148 O.2     
   9 N9            -1.5381     2.0843     0.1838 N.am    
  10 N10            2.2680     0.9773    -1.1594 N.pl3   
  11 N11            6.8667     2.1653    -2.5057 N.pl3   
  12 N12            7.9341     1.3016    -2.7800 N.2     
  13 C13            7.5515     0.0670    -2.6297 C.2     
  14 C14            6.1893     0.0583    -2.2423 C.ar    
  15 C15            5.2768    -0.9640    -1.9482 C.ar    
  16 C16            3.9980    -0.6532    -1.5956 C.ar    
  17 C17            3.5840     0.6783    -1.5228 C.ar    
  18 C18            4.4674     1.7030    -1.8083 C.ar    
  19 C19            5.7769     1.4027    -2.1704 C.ar    
  20 C20           -0.7660     6.9203     0.5776 C.2     
  21 N21           -1.3302     8.1196     0.8247 N.am    
  22 C22           -2.7814     8.2789     0.8607 C.3     
  23 C23           -3.4544     7.4173    -0.2051 C.3     
  24 C24           -2.9602     5.9984    -0.1054 C.ar    
  25 C25           -3.7938     4.9377    -0.3883 C.ar    
  26 C26           -3.3219     3.6414    -0.2916 C.ar    
  27 C27           -2.0073     3.3986     0.0894 C.ar    
  28 C28           -1.1605     4.4597     0.3766 C.ar    
  29 C29           -1.6375     5.7631     0.2793 C.ar    
  30 O30            0.4427     6.7930     0.5947 O.2     
  31 C31           -4.9699     7.4434     0.0029 C.3     
  32 C32           -3.1241     7.9741    -1.5915 C.3     
  33 H33           -1.3992    -0.2102     1.2940 H       
  34 H34           -0.3901    -2.4360     1.7194 H       
  35 H35            1.8202    -2.9647     0.7831 H       
  36 H36           -2.1265     1.3807     0.4995 H       
  37 H37            1.8625     1.8100    -1.4475 H       
  38 H38            6.8942     3.1342    -2.5424 H       
  39 H39            8.1700    -0.8061    -2.7766 H       
  40 H40            5.5868    -1.9971    -2.0019 H       
  41 H41            3.2981    -1.4441    -1.3698 H       
  42 H42            4.1425     2.7314    -1.7510 H       
  43 H43           -0.7622     8.8901     0.9816 H       
  44 H44           -3.1494     7.9845     1.8436 H       
  45 H45           -3.0310     9.3253     0.6850 H       
  46 H46           -4.8162     5.1191    -0.6852 H       
  47 H47           -3.9784     2.8130    -0.5135 H       
  48 H48           -0.1386     4.2752     0.6734 H       
  49 H49           -5.3301     8.4690    -0.0773 H       
  50 H50           -5.4516     6.8286    -0.7575 H       
  51 H51           -5.2078     7.0510     0.9916 H       
  52 H52           -2.0445     7.9606    -1.7407 H       
  53 H53           -3.6040     7.3599    -2.3534 H       
  54 H54           -3.4887     8.9985    -1.6679 H       
@<TRIPOS>BOND
   1    1    2 1
   2    1    8 2
   3    1    9 am
   4    2    3 ar
   5    2    7 ar
   6    3    4 ar
   7    3   33 1
   8    4    5 ar
   9    4   34 1
  10    5    6 ar
  11    5   35 1
  12    6    7 ar
  13    7   10 1
  14    9   27 1
  15    9   36 1
  16   10   17 1
  17   10   37 1
  18   11   12 1
  19   11   19 1
  20   11   38 1
  21   12   13 2
  22   13   14 1
  23   13   39 1
  24   14   15 ar
  25   14   19 ar
  26   15   16 ar
  27   15   40 1
  28   16   17 ar
  29   16   41 1
  30   17   18 ar
  31   18   19 ar
  32   18   42 1
  33   20   21 am
  34   20   29 1
  35   20   30 2
  36   21   22 1
  37   21   43 1
  38   22   23 1
  39   22   44 1
  40   22   45 1
  41   23   24 1
  42   23   31 1
  43   23   32 1
  44   24   25 ar
  45   24   29 ar
  46   25   26 ar
  47   25   46 1
  48   26   27 ar
  49   26   47 1
  50   27   28 ar
  51   28   29 ar
  52   28   48 1
  53   31   49 1
  54   31   50 1
  55   31   51 1
  56   32   52 1
  57   32   53 1
  58   32   54 1

#	End of record

