#	Name: ASD01941013
#	Creating user name:	WinNT
#	Creation time:	15. 06. 2019 20:13

#	Modifying user name:	WinNT
#	Modification time:	15. 06. 2019 20:13

#	Program:	/corina/corina34_cracker 3.40 0067  02.08.2006

@<TRIPOS>MOLECULE
ASD01941013
  49   51    0    0    0
SMALL
NO_CHARGES


@<TRIPOS>ATOM
   1 C1            -0.1016     1.1846     0.7988 C.ar    
   2 C2            -0.4304     0.3495    -0.2447 C.ar    
   3 C3             0.5241    -0.0001    -1.1912 C.ar    
   4 C4             1.8155     0.4874    -1.0951 C.ar    
   5 C5             2.1636     1.3319    -0.0471 C.ar    
   6 C6             1.1992     1.6855     0.9098 C.ar    
   7 F7             0.1899    -0.8209    -2.2110 F       
   8 F8             2.7383     0.1423    -2.0195 F       
   9 N9             3.4605     1.8234     0.0531 N.pl3   
  10 C10            4.4734     1.0204     0.5877 C.ar    
  11 C11            4.1937    -0.2800     0.9847 C.ar    
  12 C12            5.1963    -1.0712     1.5120 C.ar    
  13 C13            6.4782    -0.5696     1.6451 C.ar    
  14 C14            6.7620     0.7261     1.2508 C.ar    
  15 C15            5.7650     1.5214     0.7175 C.ar    
  16 F16            6.0419     2.7863     0.3321 F       
  17 I17            7.9938    -1.7740     2.4460 I       
  18 C18            1.5557     2.5796     2.0250 C.2     
  19 O19            2.6556     3.0973     2.0617 O.2     
  20 N20            0.6629     2.8240     3.0046 N.am    
  21 O21            1.0055     3.6834     4.0766 O.3     
  22 C22           -0.0347     3.8520     5.0417 C.3     
  23 C23            0.4436     4.7948     6.1477 C.3     
  24 O24            0.6666     6.0961     5.6010 O.3     
  25 C25           -1.8333    -0.1887    -0.3606 C.3     
  26 N26           -1.8487    -1.6002     0.0314 N.am    
  27 O27           -1.8915    -2.5907    -0.9760 O.3     
  28 C28           -1.4787    -3.8897    -0.5399 C.3     
  29 C29           -2.1882    -4.2028     0.7846 C.3     
  30 O30           -1.8004    -3.1909     1.7562 O.3     
  31 C31           -1.8164    -1.9133     1.3354 C.2     
  32 O32           -1.8098    -1.0193     2.1583 O.2     
  33 H33           -0.8493     1.4564     1.5292 H       
  34 H34            3.6627     2.7231    -0.2477 H       
  35 H35            3.1930    -0.6730     0.8817 H       
  36 H36            4.9785    -2.0828     1.8212 H       
  37 H37            7.7641     1.1149     1.3559 H       
  38 H38           -0.2144     2.4111     2.9754 H       
  39 H39           -0.9142     4.2766     4.5575 H       
  40 H40           -0.2896     2.8845     5.4740 H       
  41 H41           -0.3150     4.8537     6.9282 H       
  42 H42            1.3729     4.4149     6.5722 H       
  43 H43            0.9722     6.7472     6.2473 H       
  44 H44           -2.4950     0.3777     0.2947 H       
  45 H45           -2.1747    -0.0942    -1.3915 H       
  46 H46           -1.7536    -4.6329    -1.2883 H       
  47 H47           -0.3992    -3.9008    -0.3897 H       
  48 H48           -3.2681    -4.1779     0.6385 H       
  49 H49           -1.8869    -5.1884     1.1395 H       
@<TRIPOS>BOND
   1    1    2 ar
   2    1    6 ar
   3    1   33 1
   4    2    3 ar
   5    2   25 1
   6    3    4 ar
   7    3    7 1
   8    4    5 ar
   9    4    8 1
  10    5    6 ar
  11    5    9 1
  12    6   18 1
  13    9   10 1
  14    9   34 1
  15   10   11 ar
  16   10   15 ar
  17   11   12 ar
  18   11   35 1
  19   12   13 ar
  20   12   36 1
  21   13   14 ar
  22   13   17 1
  23   14   15 ar
  24   14   37 1
  25   15   16 1
  26   18   19 2
  27   18   20 am
  28   20   21 1
  29   20   38 1
  30   21   22 1
  31   22   23 1
  32   22   39 1
  33   22   40 1
  34   23   24 1
  35   23   41 1
  36   23   42 1
  37   24   43 1
  38   25   26 1
  39   25   44 1
  40   25   45 1
  41   26   27 1
  42   26   31 am
  43   27   28 1
  44   28   29 1
  45   28   46 1
  46   28   47 1
  47   29   30 1
  48   29   48 1
  49   29   49 1
  50   30   31 1
  51   31   32 2

#	End of record

