#	Name: ASD01180187
#	Creating user name:	WinNT
#	Creation time:	15. 06. 2019 19:06

#	Modifying user name:	WinNT
#	Modification time:	15. 06. 2019 19:06

#	Program:	/corina/corina34_cracker 3.40 0067  02.08.2006

@<TRIPOS>MOLECULE
ASD01180187
  61   63    0    0    0
SMALL
NO_CHARGES


@<TRIPOS>ATOM
   1 C1             0.6278     1.2653    -0.5730 C.ar    
   2 C2             0.5630    -0.1105    -0.4858 C.ar    
   3 C3             1.7343    -0.8651    -0.5146 C.ar    
   4 C4             2.9663    -0.2259    -0.6314 C.ar    
   5 C5             3.0208     1.1529    -0.7182 C.ar    
   6 C6             1.8527     1.8969    -0.6889 C.ar    
   7 C7             1.6692    -2.3446    -0.4205 C.ar    
   8 C8             2.8402    -3.0992    -0.4493 C.ar    
   9 C9             2.7738    -4.4750    -0.3610 C.ar    
  10 C10            1.5478    -5.1047    -0.2442 C.ar    
  11 C11            0.3822    -4.3605    -0.2156 C.ar    
  12 C12            0.4373    -2.9839    -0.2974 C.ar    
  13 C13            1.4818    -6.6072    -0.1482 C.3     
  14 C14            1.3001    -7.0173     1.3146 C.3     
  15 N15            0.3489    -7.0976    -0.9371 N.pl3   
  16 C16            0.3849    -8.3691    -1.4841 C.ar    
  17 N17           -0.5875    -8.7588    -2.2970 N.ar    
  18 C18           -0.5946    -9.9584    -2.8401 C.ar    
  19 C19            0.4329   -10.8639    -2.5718 C.ar    
  20 C20            1.4751   -10.4777    -1.7148 C.ar    
  21 C21            1.4459    -9.2195    -1.1771 C.ar    
  22 C22            0.4235   -12.2081    -3.1801 C.2     
  23 N23           -0.5823   -12.5691    -4.0014 N.am    
  24 O24            1.3232   -12.9901    -2.9404 O.2     
  25 C25           -0.5917   -13.9037    -4.6053 C.3     
  26 C26           -1.8327   -14.0558    -5.4872 C.3     
  27 C27           -1.8423   -15.4287    -6.1085 C.2     
  28 O28           -2.8440   -15.7883    -6.9264 O.3     
  29 O29           -0.9483   -16.2059    -5.8703 O.2     
  30 C30            2.5501    -6.6359     2.1101 C.3     
  31 C31            2.3172    -6.9233     3.5947 C.3     
  32 C32            3.7415    -7.4568     1.6126 C.3     
  33 F33            4.2146     1.7753    -0.8311 F       
  34 H34           -0.2802     1.8497    -0.5552 H       
  35 H35           -0.3945    -0.6019    -0.3949 H       
  36 H36            3.8770    -0.8060    -0.6538 H       
  37 H37            1.8986     2.9738    -0.7572 H       
  38 H38            3.7979    -2.6086    -0.5409 H       
  39 H39            3.6808    -5.0609    -0.3836 H       
  40 H40           -0.5724    -4.8574    -0.1249 H       
  41 H41           -0.4734    -2.4037    -0.2749 H       
  42 H42            2.4062    -7.0370    -0.5339 H       
  43 H43            0.4336    -6.5037     1.7310 H       
  44 H44            1.1467    -8.0949     1.3735 H       
  45 H45           -0.4264    -6.5316    -1.0763 H       
  46 H46           -1.4021   -10.2439    -3.4979 H       
  47 H47            2.2841   -11.1564    -1.4883 H       
  48 H48            2.2329    -8.8917    -0.5140 H       
  49 H49           -1.3000   -11.9452    -4.1925 H       
  50 H50            0.3039   -14.0339    -5.2128 H       
  51 H51           -0.6101   -14.6583    -3.8189 H       
  52 H52           -2.7283   -13.9256    -4.8797 H       
  53 H53           -1.8142   -13.3012    -6.2736 H       
  54 H54           -2.8068   -16.6790    -7.3009 H       
  55 H55            2.7578    -5.5746     1.9737 H       
  56 H56            2.1095    -7.9846     3.7312 H       
  57 H57            3.2077    -6.6516     4.1615 H       
  58 H58            1.4684    -6.3384     3.9492 H       
  59 H59            3.9677    -7.1815     0.5825 H       
  60 H60            4.6091    -7.2559     2.2412 H       
  61 H61            3.4966    -8.5179     1.6596 H       
@<TRIPOS>BOND
   1    1    2 ar
   2    1    6 ar
   3    1   34 1
   4    2    3 ar
   5    2   35 1
   6    3    4 ar
   7    3    7 1
   8    4    5 ar
   9    4   36 1
  10    5    6 ar
  11    5   33 1
  12    6   37 1
  13    7    8 ar
  14    7   12 ar
  15    8    9 ar
  16    8   38 1
  17    9   10 ar
  18    9   39 1
  19   10   11 ar
  20   10   13 1
  21   11   12 ar
  22   11   40 1
  23   12   41 1
  24   13   14 1
  25   13   15 1
  26   13   42 1
  27   14   30 1
  28   14   43 1
  29   14   44 1
  30   15   16 1
  31   15   45 1
  32   16   17 ar
  33   16   21 ar
  34   17   18 ar
  35   18   19 ar
  36   18   46 1
  37   19   20 ar
  38   19   22 1
  39   20   21 ar
  40   20   47 1
  41   21   48 1
  42   22   23 am
  43   22   24 2
  44   23   25 1
  45   23   49 1
  46   25   26 1
  47   25   50 1
  48   25   51 1
  49   26   27 1
  50   26   52 1
  51   26   53 1
  52   27   28 1
  53   27   29 2
  54   28   54 1
  55   30   31 1
  56   30   32 1
  57   30   55 1
  58   31   56 1
  59   31   57 1
  60   31   58 1
  61   32   59 1
  62   32   60 1
  63   32   61 1

#	End of record

