#	Name: ASD08178010
#	Creating user name:	WinNT
#	Creation time:	15. 06. 2019 21:18

#	Modifying user name:	WinNT
#	Modification time:	15. 06. 2019 21:18

#	Program:	/corina/corina34_cracker 3.40 0067  02.08.2006

@<TRIPOS>MOLECULE
ASD08178010
  65   68    0    0    0
SMALL
NO_CHARGES


@<TRIPOS>ATOM
   1 N1            -0.0150     1.2583     0.0090 N.2     
   2 N2             0.0021    -0.0041     0.0020 N.2     
   3 C3             1.1271     1.8769     0.0014 C.2     
   4 S4             2.3826     0.7116    -0.0169 S.3     
   5 C5             1.1681    -0.5677    -0.0121 C.2     
   6 N6             1.3017     3.2566     0.0067 N.am    
   7 C7             0.2284     4.0717     0.0214 C.2     
   8 C8             0.4176     5.5667     0.0272 C.3     
   9 O9            -0.8897     3.6019     0.0299 O.2     
  10 C10           -0.9288     6.2434     0.0438 C.ar    
  11 C11           -1.5346     6.5477     1.2485 C.ar    
  12 C12            1.4387    -2.0502    -0.0227 C.3     
  13 C13            1.5165    -2.5442    -1.4687 C.3     
  14 S14            1.8422    -4.3286    -1.4814 S.3     
  15 C15            1.8986    -4.7206    -3.2516 C.3     
  16 C16            2.1699    -6.2152    -3.4347 C.3     
  17 C17            2.2167    -6.5408    -4.9053 C.2     
  18 N18            3.2694    -6.5184    -5.6596 N.2     
  19 S19            0.8491    -7.0282    -5.9071 S.3     
  20 C20            1.9000    -7.1354    -7.2557 C.2     
  21 N21            3.1017    -6.8250    -6.8728 N.2     
  22 N22            1.5289    -7.4992    -8.5457 N.am    
  23 C23            2.4537    -7.5464    -9.5250 C.2     
  24 C24            2.0516    -7.9407   -10.9228 C.3     
  25 O25            3.6096    -7.2716    -9.2812 O.2     
  26 C26            3.2622    -7.9149   -11.8199 C.ar    
  27 C27            3.6028    -6.7537   -12.4880 C.ar    
  28 C28            2.6523     3.8241    -0.0036 C.3     
  29 C29           -2.7697     7.1684     1.2638 C.ar    
  30 C30           -3.3988     7.4852     0.0743 C.ar    
  31 C31           -2.7926     7.1818    -1.1304 C.ar    
  32 C32           -1.5555     6.5650    -1.1456 C.ar    
  33 C33            0.1327    -7.8312    -8.8401 C.3     
  34 C34            4.0353    -9.0510   -11.9703 C.ar    
  35 C35            5.1458    -9.0274   -12.7932 C.ar    
  36 C36            5.4829    -7.8679   -13.4661 C.ar    
  37 C37            4.7133    -6.7301   -13.3109 C.ar    
  38 H38            0.9817     5.8582     0.9132 H       
  39 H39            0.9643     5.8672    -0.8667 H       
  40 H40           -1.0431     6.3001     2.1778 H       
  41 H41            2.3843    -2.2506     0.4811 H       
  42 H42            0.6334    -2.5702     0.4961 H       
  43 H43            0.5709    -2.3438    -1.9724 H       
  44 H44            2.3218    -2.0242    -1.9874 H       
  45 H45            0.9434    -4.4658    -3.7108 H       
  46 H46            2.6943    -4.1461    -3.7258 H       
  47 H47            3.1250    -6.4700    -2.9755 H       
  48 H48            1.3741    -6.7896    -2.9605 H       
  49 H49            1.6303    -8.9459   -10.9098 H       
  50 H50            1.3064    -7.2392   -11.2980 H       
  51 H51            3.0012    -5.8650   -12.3673 H       
  52 H52            2.9772     3.9701    -1.0338 H       
  53 H53            2.6476     4.7827     0.5152 H       
  54 H54            3.3369     3.1417     0.5000 H       
  55 H55           -3.2433     7.4054     2.2050 H       
  56 H56           -4.3640     7.9695     0.0863 H       
  57 H57           -3.2842     7.4290    -2.0597 H       
  58 H58           -1.0819     6.3279    -2.0868 H       
  59 H59           -0.4006    -6.9282    -9.1373 H       
  60 H60            0.0954    -8.5586    -9.6511 H       
  61 H61           -0.3355    -8.2538    -7.9512 H       
  62 H62            3.7719    -9.9569   -11.4446 H       
  63 H63            5.7502    -9.9148   -12.9101 H       
  64 H64            6.3506    -7.8494   -14.1088 H       
  65 H65            4.9767    -5.8242   -13.8366 H       
@<TRIPOS>BOND
   1    1    2 1
   2    1    3 2
   3    2    5 2
   4    3    4 1
   5    3    6 1
   6    4    5 1
   7    5   12 1
   8    6    7 am
   9    6   28 1
  10    7    8 1
  11    7    9 2
  12    8   10 1
  13    8   38 1
  14    8   39 1
  15   10   11 ar
  16   10   32 ar
  17   11   29 ar
  18   11   40 1
  19   12   13 1
  20   12   41 1
  21   12   42 1
  22   13   14 1
  23   13   43 1
  24   13   44 1
  25   14   15 1
  26   15   16 1
  27   15   45 1
  28   15   46 1
  29   16   17 1
  30   16   47 1
  31   16   48 1
  32   17   18 2
  33   17   19 1
  34   18   21 1
  35   19   20 1
  36   20   21 2
  37   20   22 1
  38   22   23 am
  39   22   33 1
  40   23   24 1
  41   23   25 2
  42   24   26 1
  43   24   49 1
  44   24   50 1
  45   26   34 ar
  46   26   27 ar
  47   27   37 ar
  48   27   51 1
  49   28   52 1
  50   28   53 1
  51   28   54 1
  52   29   30 ar
  53   29   55 1
  54   30   31 ar
  55   30   56 1
  56   31   32 ar
  57   31   57 1
  58   32   58 1
  59   33   59 1
  60   33   60 1
  61   33   61 1
  62   34   35 ar
  63   34   62 1
  64   35   36 ar
  65   35   63 1
  66   36   37 ar
  67   36   64 1
  68   37   65 1

#	End of record

