#	Name: ASD01883291
#	Creating user name:	WinNT
#	Creation time:	15. 06. 2019 19:46

#	Modifying user name:	WinNT
#	Modification time:	15. 06. 2019 19:46

#	Program:	/corina/corina34_cracker 3.40 0067  02.08.2006

@<TRIPOS>MOLECULE
ASD01883291
  58   60    0    0    0
SMALL
NO_CHARGES


@<TRIPOS>ATOM
   1 N1            -0.0401     1.3838     0.0142 N.am    
   2 C2            -0.0132     0.0381     0.0178 C.2     
   3 C3            -1.2280    -0.6933     0.0254 C.2     
   4 C4            -2.4411     0.0145     0.0291 C.2     
   5 C5            -2.4031     1.4217     0.0250 C.2     
   6 C6            -1.2130     2.0662     0.0229 C.2     
   7 O7             1.0541    -0.5511     0.0141 O.2     
   8 C8            -1.2181    -2.1252     0.0289 C.1     
   9 N9            -1.2102    -3.2612     0.0316 N.1     
  10 C10            1.2224     2.1268     0.0068 C.3     
  11 C11            1.6559     2.3815    -1.4383 C.3     
  12 C12            2.9744     3.1575    -1.4460 C.3     
  13 C13            3.4716     3.3039    -2.8856 C.3     
  14 C14            2.7535     4.5446    -0.8393 C.3     
  15 C15           -3.7342    -0.7051     0.0365 C.ar    
  16 C16           -4.5879    -0.5954     1.1360 C.ar    
  17 C17           -5.7915    -1.2646     1.1429 C.ar    
  18 C18           -6.1582    -2.0531     0.0502 C.ar    
  19 C19           -5.3044    -2.1628    -1.0494 C.ar    
  20 C20           -4.1032    -1.4892    -1.0583 C.ar    
  21 C21           -7.4504    -2.7722     0.0577 C.2     
  22 N22           -7.9348    -3.2755     1.2102 N.am    
  23 C23           -9.2703    -3.8770     1.2428 C.3     
  24 C24           -9.1657    -5.3491     0.9376 C.ar    
  25 C25           -8.9846    -6.2567     1.9644 C.ar    
  26 C26           -8.8887    -7.6070     1.6844 C.ar    
  27 C27           -8.9743    -8.0497     0.3777 C.ar    
  28 C28           -9.1564    -7.1422    -0.6490 C.ar    
  29 C29           -9.2566    -5.7923    -0.3686 C.ar    
  30 C30           -7.1260    -3.2212     2.4305 C.3     
  31 O31           -8.0756    -2.9093    -0.9756 O.2     
  32 H32           -3.3234     1.9869     0.0273 H       
  33 H33           -1.1965     3.1461     0.0197 H       
  34 H34            1.0863     3.0795     0.5185 H       
  35 H35            1.9891     1.5455     0.5190 H       
  36 H36            1.7920     1.4288    -1.9501 H       
  37 H37            0.8892     2.9628    -1.9505 H       
  38 H38            3.7170     2.6179    -0.8582 H       
  39 H39            2.7291     3.8434    -3.4734 H       
  40 H40            4.4110     3.8567    -2.8911 H       
  41 H41            3.6291     2.3157    -3.3178 H       
  42 H42            2.0109     5.0842    -1.4271 H       
  43 H43            2.3992     4.4403     0.1863 H       
  44 H44            3.6928     5.0974    -0.8448 H       
  45 H45           -4.3042     0.0141     1.9813 H       
  46 H46           -6.4516    -1.1800     1.9934 H       
  47 H47           -5.5877    -2.7728    -1.8944 H       
  48 H48           -3.4430    -1.5738    -1.9089 H       
  49 H49           -9.7058    -3.7413     2.2327 H       
  50 H50           -9.9039    -3.3956     0.4979 H       
  51 H51           -8.9177    -5.9108     2.9853 H       
  52 H52           -8.7465    -8.3160     2.4866 H       
  53 H53           -8.8987    -9.1046     0.1589 H       
  54 H54           -9.2229    -7.4881    -1.6700 H       
  55 H55           -9.3988    -5.0833    -1.1708 H       
  56 H56           -7.2689    -2.2570     2.9185 H       
  57 H57           -7.4334    -4.0194     3.1061 H       
  58 H58           -6.0738    -3.3466     2.1749 H       
@<TRIPOS>BOND
   1    1    2 am
   2    1   10 1
   3    1    6 1
   4    2    3 1
   5    2    7 2
   6    3    4 2
   7    3    8 1
   8    4    5 1
   9    4   15 1
  10    5    6 2
  11    5   32 1
  12    6   33 1
  13    8    9 3
  14   10   11 1
  15   10   34 1
  16   10   35 1
  17   11   12 1
  18   11   36 1
  19   11   37 1
  20   12   13 1
  21   12   14 1
  22   12   38 1
  23   13   39 1
  24   13   40 1
  25   13   41 1
  26   14   42 1
  27   14   43 1
  28   14   44 1
  29   15   16 ar
  30   15   20 ar
  31   16   17 ar
  32   16   45 1
  33   17   18 ar
  34   17   46 1
  35   18   19 ar
  36   18   21 1
  37   19   20 ar
  38   19   47 1
  39   20   48 1
  40   21   22 am
  41   21   31 2
  42   22   23 1
  43   22   30 1
  44   23   24 1
  45   23   49 1
  46   23   50 1
  47   24   25 ar
  48   24   29 ar
  49   25   26 ar
  50   25   51 1
  51   26   27 ar
  52   26   52 1
  53   27   28 ar
  54   27   53 1
  55   28   29 ar
  56   28   54 1
  57   29   55 1
  58   30   56 1
  59   30   57 1
  60   30   58 1

#	End of record

