#	Name: ASD00310113
#	Creating user name:	WinNT
#	Creation time:	15. 06. 2019 18:33

#	Modifying user name:	WinNT
#	Modification time:	15. 06. 2019 18:33

#	Program:	/corina/corina34_cracker 3.40 0067  02.08.2006

@<TRIPOS>MOLECULE
ASD00310113
  47   50    0    0    0
SMALL
NO_CHARGES


@<TRIPOS>ATOM
   1 N1            -0.0163     1.3499     0.0095 N.pl3   
   2 C2             0.0021    -0.0041     0.0020 C.2     
   3 C3             1.2922    -0.4483    -0.0127 C.2     
   4 C4             2.1476     0.7538    -0.0144 C.ar    
   5 C5             3.5232     0.9581    -0.0271 C.ar    
   6 C6             4.0243     2.2537    -0.0256 C.ar    
   7 C7             3.1468     3.3436    -0.0109 C.ar    
   8 C8             1.7853     3.1435     0.0021 C.ar    
   9 C9             1.2697     1.8501    -0.0001 C.ar    
  10 C10            1.7402    -1.8455    -0.0237 C.2     
  11 O11            2.9286    -2.1028    -0.0361 O.2     
  12 O12            0.8342    -2.8441    -0.0202 O.3     
  13 C13            5.4898     2.4818    -0.0391 C.ar    
  14 C14            6.1162     3.0893     1.0537 C.ar    
  15 C15            7.4853     3.2986     1.0326 C.ar    
  16 C16            8.2288     2.9079    -0.0654 C.ar    
  17 C17            7.6121     2.3067    -1.1479 C.ar    
  18 C18            6.2491     2.0869    -1.1377 C.ar    
  19 O19            5.3843     3.4733     2.1320 O.3     
  20 C20            6.0920     4.0874     3.2110 C.3     
  21 C21            9.7180     3.1384    -0.0834 C.3     
  22 C22           10.4929     2.0955    -0.9061 C.3     
  23 C23           11.3659     3.2570    -1.4097 C.3     
  24 C24           10.1679     4.1778    -1.1235 C.3     
  25 O25           10.2613     3.3579     1.2200 O.3     
  26 Cl26           3.7803     4.9599    -0.0086 Cl      
  27 C27            1.3493    -4.2016    -0.0317 C.3     
  28 H28           -0.8206     1.8921     0.0164 H       
  29 H29           -0.8729    -0.6372     0.0070 H       
  30 H30            4.1977     0.1146    -0.0377 H       
  31 H31            1.1158     3.9909     0.0138 H       
  32 H32            7.9723     3.7678     1.8747 H       
  33 H33            8.1995     2.0041    -2.0022 H       
  34 H34            5.7716     1.6132    -1.9827 H       
  35 H35            5.3913     4.3445     4.0054 H       
  36 H36            6.8397     3.3942     3.5963 H       
  37 H37            6.5847     4.9919     2.8543 H       
  38 H38           11.0359     1.3738    -0.2960 H       
  39 H39            9.8968     1.6261    -1.6887 H       
  40 H40           12.2316     3.4580    -0.7787 H       
  41 H41           11.6191     3.1861    -2.4675 H       
  42 H42            9.4830     4.2777    -1.9655 H       
  43 H43           10.4487     5.1372    -0.6888 H       
  44 H44            9.7922     4.0297     1.7336 H       
  45 H45            0.5174    -4.9059    -0.0274 H       
  46 H46            1.9503    -4.3546    -0.9281 H       
  47 H47            1.9669    -4.3633     0.8518 H       
@<TRIPOS>BOND
   1    1    2 1
   2    1    9 1
   3    1   28 1
   4    2    3 2
   5    2   29 1
   6    3    4 1
   7    3   10 1
   8    4    5 ar
   9    4    9 ar
  10    5    6 ar
  11    5   30 1
  12    6    7 ar
  13    6   13 1
  14    7    8 ar
  15    7   26 1
  16    8    9 ar
  17    8   31 1
  18   10   11 2
  19   10   12 1
  20   12   27 1
  21   13   14 ar
  22   13   18 ar
  23   14   15 ar
  24   14   19 1
  25   15   16 ar
  26   15   32 1
  27   16   17 ar
  28   16   21 1
  29   17   18 ar
  30   17   33 1
  31   18   34 1
  32   19   20 1
  33   20   35 1
  34   20   36 1
  35   20   37 1
  36   21   22 1
  37   21   24 1
  38   21   25 1
  39   22   23 1
  40   22   38 1
  41   22   39 1
  42   23   24 1
  43   23   40 1
  44   23   41 1
  45   24   42 1
  46   24   43 1
  47   25   44 1
  48   27   45 1
  49   27   46 1
  50   27   47 1

#	End of record

