#	Name: ASD08150440
#	Creating user name:	WinNT
#	Creation time:	15. 06. 2019 21:16

#	Modifying user name:	WinNT
#	Modification time:	15. 06. 2019 21:16

#	Program:	/corina/corina34_cracker 3.40 0067  02.08.2006

@<TRIPOS>MOLECULE
ASD08150440
  65   69    0    0    0
SMALL
NO_CHARGES


@<TRIPOS>ATOM
   1 C1            -0.0184     1.5028     0.0103 C.2     
   2 C2             0.0021    -0.0041     0.0020 C.3     
   3 C3            -0.5881    -0.5293     1.3123 C.3     
   4 O4             1.0236     2.1234     0.0037 O.2     
   5 O5             1.3494    -0.4614    -0.1307 O.3     
   6 N6            -1.1946     2.1607     0.0195 N.am    
   7 C7            -1.2371     3.6309     0.0277 C.3     
   8 C8            -2.1670     4.0972    -1.0975 C.3     
   9 N9            -3.4717     3.4372    -0.9554 N.3     
  10 C10           -3.3510     1.9807    -1.1034 C.3     
  11 C11           -2.4697     1.4277     0.0154 C.3     
  12 C12           -4.4452     3.9844    -1.9097 C.3     
  13 C13           -9.8535     1.4084    -0.9084 C.ar    
  14 N14           -8.9719     2.3453    -0.6239 N.ar    
  15 C15           -7.7886     2.4105    -1.2740 C.ar    
  16 C16           -7.5297     1.4526    -2.2579 C.ar    
  17 C17           -8.5006     0.4725    -2.5266 C.ar    
  18 N18           -9.6341     0.4847    -1.8390 N.ar    
  19 C19           -6.7303     3.3203    -1.1185 C.2     
  20 C20           -5.6857     3.1287    -1.9083 C.2     
  21 S21           -5.9423     1.7427    -2.9548 S.3     
  22 O22           -7.9361    -3.1090    -4.4562 O.3     
  23 C23           -9.1586    -2.4166    -4.7235 C.3     
  24 C24           -9.4223    -1.4067    -3.6034 C.3     
  25 N25           -8.2766    -0.4918    -3.4958 N.3     
  26 C26           -7.0391    -1.2367    -3.2218 C.3     
  27 C27           -6.7993    -2.2483    -4.3457 C.3     
  28 C28           -6.7810     4.4443    -0.1159 C.3     
  29 C29          -13.4469     1.3282     1.1927 C.ar    
  30 N30          -12.5563     2.2686     1.4754 N.ar    
  31 C31          -11.4048     2.3272     0.8311 C.ar    
  32 C32          -11.1327     1.3796    -0.1601 C.ar    
  33 C33          -12.0980     0.4046    -0.4280 C.ar    
  34 N34          -13.2255     0.4125     0.2599 N.ar    
  35 N35          -14.6376     1.2981     1.8942 N.pl3   
  36 H36           -0.5904    -0.3709    -0.8362 H       
  37 H37           -1.6158    -0.1805     1.4135 H       
  38 H38           -0.5733    -1.6192     1.3063 H       
  39 H39            0.0044    -0.1625     2.1504 H       
  40 H40            1.9350    -0.1721     0.5823 H       
  41 H41           -1.6189     3.9808     0.9868 H       
  42 H42           -0.2352     4.0271    -0.1375 H       
  43 H43           -2.2975     5.1777    -1.0373 H       
  44 H44           -1.7306     3.8364    -2.0617 H       
  45 H45           -4.3401     1.5262    -1.0474 H       
  46 H46           -2.8981     1.7493    -2.0675 H       
  47 H47           -2.2822     0.3679    -0.1578 H       
  48 H48           -2.9721     1.5617     0.9733 H       
  49 H49           -4.7057     5.0023    -1.6197 H       
  50 H50           -4.0099     3.9915    -2.9090 H       
  51 H51           -9.0790    -1.8917    -5.6755 H       
  52 H52           -9.9796    -3.1321    -4.7692 H       
  53 H53          -10.3230    -0.8368    -3.8318 H       
  54 H54           -9.5552    -1.9361    -2.6599 H       
  55 H55           -6.2001    -0.5427    -3.1717 H       
  56 H56           -7.1339    -1.7633    -2.2722 H       
  57 H57           -5.9140    -2.8420    -4.1182 H       
  58 H58           -6.6510    -1.7185    -5.2867 H       
  59 H59           -6.3701     4.1026     0.8341 H       
  60 H60           -6.1943     5.2861    -0.4838 H       
  61 H61           -7.8153     4.7572     0.0271 H       
  62 H62          -10.6839     3.0962     1.0663 H       
  63 H63          -11.9241    -0.3446    -1.1862 H       
  64 H64          -14.8119     1.9592     2.5823 H       
  65 H65          -15.2988     0.6159     1.6983 H       
@<TRIPOS>BOND
   1    1    2 1
   2    1    4 2
   3    1    6 am
   4    2    3 1
   5    2    5 1
   6    2   36 1
   7    3   37 1
   8    3   38 1
   9    3   39 1
  10    5   40 1
  11    6    7 1
  12    6   11 1
  13    7    8 1
  14    7   41 1
  15    7   42 1
  16    8    9 1
  17    8   43 1
  18    8   44 1
  19    9   10 1
  20    9   12 1
  21   10   11 1
  22   10   45 1
  23   10   46 1
  24   11   47 1
  25   11   48 1
  26   12   20 1
  27   12   49 1
  28   12   50 1
  29   13   14 ar
  30   13   18 ar
  31   13   32 1
  32   14   15 ar
  33   15   16 ar
  34   15   19 1
  35   16   17 ar
  36   16   21 1
  37   17   18 ar
  38   17   25 1
  39   19   20 2
  40   19   28 1
  41   20   21 1
  42   22   23 1
  43   22   27 1
  44   23   24 1
  45   23   51 1
  46   23   52 1
  47   24   25 1
  48   24   53 1
  49   24   54 1
  50   25   26 1
  51   26   27 1
  52   26   55 1
  53   26   56 1
  54   27   57 1
  55   27   58 1
  56   28   59 1
  57   28   60 1
  58   28   61 1
  59   29   30 ar
  60   29   34 ar
  61   29   35 1
  62   30   31 ar
  63   31   32 ar
  64   31   62 1
  65   32   33 ar
  66   33   34 ar
  67   33   63 1
  68   35   64 1
  69   35   65 1

#	End of record

