#	Name: ASD00431263
#	Creating user name:	WinNT
#	Creation time:	15. 06. 2019 18:35

#	Modifying user name:	WinNT
#	Modification time:	15. 06. 2019 18:35

#	Program:	/corina/corina34_cracker 3.40 0067  02.08.2006

@<TRIPOS>MOLECULE
ASD00431263
  36   37    0    0    0
SMALL
NO_CHARGES


@<TRIPOS>ATOM
   1 S1            -0.0158     1.7026    -0.0244 S.3     
   2 C2            -0.0487     0.0126    -0.2789 C.2     
   3 N3             1.0767    -0.3897    -0.7871 N.2     
   4 C4             1.9955     0.5220    -1.0056 C.2     
   5 C5             1.6255     1.7781    -0.6606 C.2     
   6 C6             2.4454     2.9870    -0.7935 C.2     
   7 Cl7            4.0508     2.8796    -1.4452 Cl      
   8 N8             1.9701     4.1381    -0.4235 N.2     
   9 O9             2.7616     5.3052    -0.5518 O.3     
  10 O10           -1.0985    -0.7921     0.0087 O.3     
  11 C11           -0.9229    -2.1358    -0.1049 C.ar    
  12 C12           -2.0124    -2.9900     0.0013 C.ar    
  13 C13           -1.8333    -4.3553    -0.1147 C.ar    
  14 C14           -0.5651    -4.8718    -0.3372 C.ar    
  15 C15            0.5229    -4.0183    -0.4427 C.ar    
  16 C16            0.3435    -2.6528    -0.3325 C.ar    
  17 O17           -0.3888    -6.2152    -0.4513 O.3     
  18 C18            0.9440    -6.6775    -0.6799 C.3     
  19 C19            0.9441    -8.2042    -0.7798 C.3     
  20 C20            0.1491    -8.6346    -2.0142 C.3     
  21 C21            2.3840    -8.7073    -0.8996 C.3     
  22 Cl22          -3.5990    -2.3431     0.2804 Cl      
  23 H23            2.9637     0.2901    -1.4241 H       
  24 H24            2.3232     6.1128    -0.2508 H       
  25 H25           -2.6803    -5.0201    -0.0318 H       
  26 H26            1.5100    -4.4209    -0.6156 H       
  27 H27            1.1904    -1.9882    -0.4196 H       
  28 H28            1.3215    -6.2525    -1.6099 H       
  29 H29            1.5829    -6.3674     0.1470 H       
  30 H30            0.4847    -8.6269     0.1137 H       
  31 H31            0.6085    -8.2119    -2.9078 H       
  32 H32            0.1492    -9.7223    -2.0854 H       
  33 H33           -0.8767    -8.2762    -1.9288 H       
  34 H34            2.9504    -8.4007    -0.0202 H       
  35 H35            2.3842    -9.7950    -0.9708 H       
  36 H36            2.8434    -8.2847    -1.7932 H       
@<TRIPOS>BOND
   1    1    2 1
   2    1    5 1
   3    2    3 2
   4    2   10 1
   5    3    4 1
   6    4    5 2
   7    4   23 1
   8    5    6 1
   9    6    7 1
  10    6    8 2
  11    8    9 1
  12    9   24 1
  13   10   11 1
  14   11   12 ar
  15   11   16 ar
  16   12   13 ar
  17   12   22 1
  18   13   14 ar
  19   13   25 1
  20   14   15 ar
  21   14   17 1
  22   15   16 ar
  23   15   26 1
  24   16   27 1
  25   17   18 1
  26   18   19 1
  27   18   28 1
  28   18   29 1
  29   19   20 1
  30   19   21 1
  31   19   30 1
  32   20   31 1
  33   20   32 1
  34   20   33 1
  35   21   34 1
  36   21   35 1
  37   21   36 1

#	End of record

