#	Name: ASD00170220
#	Creating user name:	WinNT
#	Creation time:	15. 06. 2019 18:31

#	Modifying user name:	WinNT
#	Modification time:	15. 06. 2019 18:31

#	Program:	/corina/corina34_cracker 3.40 0067  02.08.2006

@<TRIPOS>MOLECULE
ASD00170220
  72   64    0    0    0
SMALL
NO_CHARGES


@<TRIPOS>ATOM
   1 C1             4.0257     1.4529     3.6661 C.ar    
   2 C2             4.0405     0.0678     3.6725 C.ar    
   3 C3             3.9336    -0.6371     2.4850 C.ar    
   4 C4             3.8120     0.0372     1.2883 C.ar    
   5 C5             3.7963     1.4333     1.2753 C.ar    
   6 C6             3.9041     2.1383     2.4757 C.ar    
   7 Cl7            4.1945    -0.7881     5.1750 Cl      
   8 C8             4.6223     4.4858    -0.1305 C.2     
   9 C9             3.5343     3.6204    -0.0062 C.2     
  10 C10            3.6667     2.1622    -0.0044 C.2     
  11 O11            3.6700     1.5498    -1.0569 O.2     
  12 C12            4.2834     5.7883    -0.1038 C.2     
  13 S13            2.5449     5.9595     0.0762 S.3     
  14 C14            2.3220     4.2688     0.1148 C.2     
  15 N15            1.1044     3.6397     0.2474 N.pl3   
  16 C16            5.2075     6.8774    -0.2068 C.1     
  17 C17            5.9651     7.7703    -0.2913 C.1     
  18 N18            6.3609     3.8356    -1.6987 N.3     
  19 C19            6.0439     4.0069    -0.2745 C.3     
  20 C20            6.8891     8.8594    -0.3943 C.ar    
  21 C21            6.4275    10.1787    -0.3550 C.ar    
  22 C22            7.3236    11.2221    -0.4548 C.ar    
  23 C23            8.6765    10.9661    -0.5941 C.ar    
  24 C24            9.1411     9.6630    -0.6343 C.ar    
  25 C25            8.2582     8.6089    -0.5290 C.ar    
  26 H26            4.1049     1.9970     4.5956 H       
  27 H27            3.9458    -1.7170     2.4963 H       
  28 H28            3.7293    -0.5135     0.3629 H       
  29 H29            3.8922     3.2182     2.4719 H       
  30 H30            0.3030     4.1627     0.4059 H       
  31 H31            1.0481     2.6735     0.1823 H       
  32 H32            6.1988     4.6900    -2.2105 H       
  33 H33            7.3096     3.5148    -1.8219 H       
  34 H34            6.7206     4.7410     0.1626 H       
  35 H35            6.1601     3.0534     0.2407 H       
  36 H36            5.3720    10.3800    -0.2470 H       
  37 H37            6.9686    12.2416    -0.4246 H       
  38 H38            9.3734    11.7874    -0.6722 H       
  39 H39           10.1983     9.4712    -0.7439 H       
  40 H40            8.6227     7.5927    -0.5556 H       
  41 C41           15.2630    20.8422    10.1948 C.1     
  42 C42           15.2471    22.0161    10.2013 C.1     
  43 C43           15.2817    19.4654    10.1873 C.1     
  44 C44           15.2284    23.3930    10.2089 C.1     
  45 C45           15.2976    18.2915    10.1808 C.1     
  46 C46           15.2125    24.5668    10.2153 C.1     
  47 H47           15.3118    17.2416    10.1750 H       
  48 H48           15.1983    25.6167    10.2211 H       
  49 H49           20.3118    30.6167    15.2211 H       
  50 H50           20.3118    31.3767    15.2211 H       
  51 H51           25.3118    36.3767    20.2211 H       
  52 H52           25.3118    37.1367    20.2211 H       
  53 H53           30.3118    42.1367    25.2211 H       
  54 H54           30.3118    42.8967    25.2211 H       
  55 H55           35.3118    47.8967    30.2211 H       
  56 H56           35.3118    48.6567    30.2211 H       
  57 C57           40.3766    57.2573    35.2409 C.1     
  58 C58           40.3607    58.4312    35.2474 C.1     
  59 C59           40.3953    55.8805    35.2333 C.1     
  60 C60           40.3420    59.8081    35.2549 C.1     
  61 C61           40.4112    54.7066    35.2269 C.1     
  62 C62           40.3261    60.9819    35.2614 C.1     
  63 H63           40.4254    53.6567    35.2211 H       
  64 H64           40.3118    62.0318    35.2672 H       
  65 H65           45.4254    67.0318    40.2672 H       
  66 H66           45.4254    67.7918    40.2672 H       
  67 H67           50.4254    72.7918    45.2672 H       
  68 H68           50.4254    73.5518    45.2672 H       
  69 H69           55.4254    78.5518    50.2672 H       
  70 H70           55.4254    79.3118    50.2672 H       
  71 H71           60.4254    84.3118    55.2672 H       
  72 H72           60.4254    85.0718    55.2672 H       
@<TRIPOS>BOND
   1    1    2 ar
   2    1    6 ar
   3    1   26 1
   4    2    3 ar
   5    2    7 1
   6    3    4 ar
   7    3   27 1
   8    4    5 ar
   9    4   28 1
  10    5    6 ar
  11    5   10 1
  12    6   29 1
  13    8   19 1
  14    8    9 1
  15    8   12 2
  16    9   10 1
  17    9   14 2
  18   10   11 2
  19   12   13 1
  20   12   16 1
  21   13   14 1
  22   14   15 1
  23   15   30 1
  24   15   31 1
  25   16   17 3
  26   17   20 1
  27   18   19 1
  28   18   32 1
  29   18   33 1
  30   19   34 1
  31   19   35 1
  32   20   21 ar
  33   20   25 ar
  34   21   22 ar
  35   21   36 1
  36   22   23 ar
  37   22   37 1
  38   23   24 ar
  39   23   38 1
  40   24   25 ar
  41   24   39 1
  42   25   40 1
  43   41   42 3
  44   41   43 1
  45   42   44 1
  46   43   45 3
  47   44   46 3
  48   45   47 1
  49   46   48 1
  50   49   50 1
  51   51   52 1
  52   53   54 1
  53   55   56 1
  54   57   58 3
  55   57   59 1
  56   58   60 1
  57   59   61 3
  58   60   62 3
  59   61   63 1
  60   62   64 1
  61   65   66 1
  62   67   68 1
  63   69   70 1
  64   71   72 1

#	End of record

