#	Name: ASD03091054
#	Creating user name:	WinNT
#	Creation time:	15. 06. 2019 20:30

#	Modifying user name:	WinNT
#	Modification time:	15. 06. 2019 20:30

#	Program:	/corina/corina34_cracker 3.40 0067  02.08.2006

@<TRIPOS>MOLECULE
ASD03091054
  61   65    0    0    0
SMALL
NO_CHARGES


@<TRIPOS>ATOM
   1 C1             0.4485     2.5851    -1.1511 C.2     
   2 C2            -0.1371     1.2526    -0.8934 C.ar    
   3 C3             0.6725     0.2056    -0.4498 C.ar    
   4 C4             0.1196    -1.0379    -0.2100 C.ar    
   5 C5            -1.2356    -1.2464    -0.4091 C.ar    
   6 C6            -2.0437    -0.2110    -0.8492 C.ar    
   7 C7            -1.5023     1.0383    -1.0871 C.ar    
   8 O8             1.5921     2.8220    -0.8140 O.2     
   9 N9            -0.2837     3.5357    -1.7649 N.am    
  10 F10           -3.3642    -0.4214    -1.0416 F       
  11 F11            0.9020    -2.0523     0.2189 F       
  12 N12            3.7688    -1.4010    -0.1383 N.3     
  13 C13            2.9466    -0.5904    -1.0472 C.3     
  14 C14            2.1467     0.4307    -0.2333 C.3     
  15 C15            2.4813     0.2512     1.2529 C.3     
  16 C16            3.9895     0.4555     1.4430 C.3     
  17 C17            4.7389    -0.5658     0.5824 C.3     
  18 C18            2.9267    -2.1591     0.7974 C.3     
  19 C19            2.1262    -1.1832     1.6645 C.3     
  20 C20            1.9837    -1.5000    -1.8128 C.3     
  21 C21            3.3757    -3.2339    -2.9735 C.ar    
  22 C22            2.6735    -2.0449    -3.0369 C.ar    
  23 C23            2.6116    -1.3603    -4.2407 C.ar    
  24 C24            3.2611    -1.8996    -5.3409 C.ar    
  25 C25            3.9436    -3.0930    -5.2016 C.ar    
  26 N26            3.9818    -3.7168    -4.0403 N.ar    
  27 C27           -1.2278     5.1467    -3.9102 C.2     
  28 C28           -0.2178     5.6426    -2.9621 C.ar    
  29 C29            0.2283     4.8215    -1.9124 C.ar    
  30 C30            1.1798     5.2977    -1.0247 C.ar    
  31 C31            1.6879     6.5795    -1.1738 C.ar    
  32 C32            1.2467     7.3934    -2.2130 C.ar    
  33 C33            0.3068     6.9313    -3.1049 C.ar    
  34 O34           -1.5997     3.9910    -3.8526 O.2     
  35 O35           -1.7406     5.9741    -4.8425 O.3     
  36 O36            2.6193     7.0424    -0.3021 O.3     
  37 H37           -1.6635    -2.2200    -0.2208 H       
  38 H38           -2.1340     1.8460    -1.4263 H       
  39 H39           -1.1675     3.3238    -2.1039 H       
  40 H40            3.5922    -0.0675    -1.7529 H       
  41 H41            2.4142     1.4392    -0.5486 H       
  42 H42            1.9267     0.9735     1.8518 H       
  43 H43            4.2632     1.4643     1.1340 H       
  44 H44            4.2485     0.3097     2.4916 H       
  45 H45            5.3572    -1.1960     1.2217 H       
  46 H46            5.3718    -0.0427    -0.1344 H       
  47 H47            2.2409    -2.7943     0.2368 H       
  48 H48            3.5578    -2.7783     1.4348 H       
  49 H49            2.3789    -1.3352     2.7138 H       
  50 H50            1.0598    -1.3526     1.5154 H       
  51 H51            1.6763    -2.3258    -1.1712 H       
  52 H52            1.1062    -0.9282    -2.1146 H       
  53 H53            3.4325    -3.7710    -2.0383 H       
  54 H54            2.0700    -0.4293    -4.3200 H       
  55 H55            3.2335    -1.3935    -6.2945 H       
  56 H56            4.4521    -3.5196    -6.0536 H       
  57 H57            1.5255     4.6705    -0.2162 H       
  58 H58            1.6470     8.3905    -2.3222 H       
  59 H59           -0.0290     7.5648    -3.9126 H       
  60 H60           -2.4013     5.6029    -5.4432 H       
  61 H61            3.5312     6.8618    -0.5682 H       
@<TRIPOS>BOND
   1    1    2 1
   2    1    8 2
   3    1    9 am
   4    2    3 ar
   5    2    7 ar
   6    3    4 ar
   7    3   14 1
   8    4    5 ar
   9    4   11 1
  10    5    6 ar
  11    5   37 1
  12    6    7 ar
  13    6   10 1
  14    7   38 1
  15    9   29 1
  16    9   39 1
  17   12   17 1
  18   12   18 1
  19   12   13 1
  20   13   14 1
  21   13   20 1
  22   13   40 1
  23   14   15 1
  24   14   41 1
  25   15   16 1
  26   15   19 1
  27   15   42 1
  28   16   17 1
  29   16   43 1
  30   16   44 1
  31   17   45 1
  32   17   46 1
  33   18   19 1
  34   18   47 1
  35   18   48 1
  36   19   49 1
  37   19   50 1
  38   20   22 1
  39   20   51 1
  40   20   52 1
  41   21   22 ar
  42   21   26 ar
  43   21   53 1
  44   22   23 ar
  45   23   24 ar
  46   23   54 1
  47   24   25 ar
  48   24   55 1
  49   25   26 ar
  50   25   56 1
  51   27   28 1
  52   27   34 2
  53   27   35 1
  54   28   29 ar
  55   28   33 ar
  56   29   30 ar
  57   30   31 ar
  58   30   57 1
  59   31   32 ar
  60   31   36 1
  61   32   33 ar
  62   32   58 1
  63   33   59 1
  64   35   60 1
  65   36   61 1

#	End of record

