#	Name: ASD01870488
#	Creating user name:	WinNT
#	Creation time:	15. 06. 2019 19:39

#	Modifying user name:	WinNT
#	Modification time:	15. 06. 2019 19:39

#	Program:	/corina/corina34_cracker 3.40 0067  02.08.2006

@<TRIPOS>MOLECULE
ASD01870488
  38   41    0    0    0
SMALL
NO_CHARGES


@<TRIPOS>ATOM
   1 C1            -0.0298     1.3317    -0.2295 C.ar    
   2 N2            -0.0270     0.0162    -0.1072 N.ar    
   3 C3             1.0748    -0.6679     0.1262 C.ar    
   4 C4             2.3030    -0.0316     0.2573 C.ar    
   5 C5             2.3524     1.3473     0.1372 C.ar    
   6 C6             1.1518     2.0461    -0.1133 C.ar    
   7 C7             3.4131     2.3742     0.2056 C.2     
   8 N8             2.8516     3.5815     0.0067 N.am    
   9 C9             1.5243     3.4723    -0.1872 C.2     
  10 O10            0.7601     4.3942    -0.3901 O.2     
  11 O11            4.5918     2.1645     0.4073 O.2     
  12 C12            3.5573     4.7946     0.0035 C.ar    
  13 C13            4.0897     5.2848    -1.1812 C.ar    
  14 C14            4.7839     6.4780    -1.1847 C.ar    
  15 C15            4.9502     7.1887    -0.0029 C.ar    
  16 C16            4.4176     6.6992     1.1824 C.ar    
  17 C17            3.7182     5.5077     1.1849 C.ar    
  18 Cl18           3.0464     4.8984     2.6652 Cl      
  19 N19            5.6550     8.3982    -0.0067 N.am    
  20 C20            6.4283     8.7308     1.0458 C.2     
  21 C21            7.2503     9.9534     0.9993 C.2     
  22 O22            6.4479     8.0221     2.0341 O.2     
  23 C23            8.0741    10.4119     1.9809 C.2     
  24 O24            8.6278    11.5482     1.5282 O.3     
  25 C25            8.1551    11.7830     0.2961 C.2     
  26 N26            7.3328    10.8331    -0.0355 N.2     
  27 C27            8.3179     9.7671     3.3210 C.3     
  28 H28           -0.9559     1.8518    -0.4252 H       
  29 H29            1.0221    -1.7427     0.2176 H       
  30 H30            3.2007    -0.6006     0.4492 H       
  31 H31            3.9609     4.7324    -2.1002 H       
  32 H32            5.1982     6.8588    -2.1065 H       
  33 H33            4.5470     7.2515     2.1015 H       
  34 H34            5.5869     8.9969    -0.7669 H       
  35 H35            8.4192    12.6264    -0.3247 H       
  36 H36            9.1544     9.0726     3.2433 H       
  37 H37            8.5515    10.5363     4.0572 H       
  38 H38            7.4242     9.2261     3.6320 H       
@<TRIPOS>BOND
   1    1    2 ar
   2    1    6 ar
   3    1   28 1
   4    2    3 ar
   5    3    4 ar
   6    3   29 1
   7    4    5 ar
   8    4   30 1
   9    5    7 1
  10    5    6 ar
  11    6    9 1
  12    7    8 am
  13    7   11 2
  14    8    9 am
  15    8   12 1
  16    9   10 2
  17   12   13 ar
  18   12   17 ar
  19   13   14 ar
  20   13   31 1
  21   14   15 ar
  22   14   32 1
  23   15   16 ar
  24   15   19 1
  25   16   17 ar
  26   16   33 1
  27   17   18 1
  28   19   20 am
  29   19   34 1
  30   20   21 1
  31   20   22 2
  32   21   23 2
  33   21   26 1
  34   23   24 1
  35   23   27 1
  36   24   25 1
  37   25   26 2
  38   25   35 1
  39   27   36 1
  40   27   37 1
  41   27   38 1

#	End of record

