#	Name: ASD02198020
#	Creating user name:	WinNT
#	Creation time:	15. 06. 2019 20:18

#	Modifying user name:	WinNT
#	Modification time:	15. 06. 2019 20:18

#	Program:	/corina/corina34_cracker 3.40 0067  02.08.2006

@<TRIPOS>MOLECULE
ASD02198020
  40   43    0    0    0
SMALL
NO_CHARGES


@<TRIPOS>ATOM
   1 N1             1.3119    -0.5219     0.3474 N.pl3   
   2 N2             0.0765    -2.9819    -0.2889 N.pl3   
   3 C3            -1.0974    -2.2715    -0.1475 C.2     
   4 C4            -1.1667    -0.9192     0.0886 C.2     
   5 C5             0.0261    -0.0660     0.2185 C.2     
   6 S6            -2.6577    -2.9514    -0.2491 S.3     
   7 C7            -3.4235    -1.3967     0.0367 C.2     
   8 C8            -2.4653    -0.4278     0.1931 C.2     
   9 C9            -4.8156    -1.1768     0.0929 C.2     
  10 O10           -5.2476    -0.0557     0.2970 O.2     
  11 N11           -5.6680    -2.2065    -0.0791 N.am    
  12 N12           -2.7604     0.9079     0.4338 N.pl3   
  13 C13            0.0445    -4.3771    -0.3597 C.ar    
  14 C14            0.9392    -5.0533    -1.1797 C.ar    
  15 N15            0.0188     1.2477     0.2291 N.2     
  16 C16            1.2874     1.7093     0.3642 C.ar    
  17 C17            2.1323     0.5890     0.4418 C.ar    
  18 C18            1.8388     2.9924     0.4323 C.ar    
  19 C19            3.1994     3.1452     0.5743 C.ar    
  20 C20            4.0286     2.0356     0.6504 C.ar    
  21 C21            3.5008     0.7626     0.5852 C.ar    
  22 C22            0.9051    -6.4322    -1.2469 C.ar    
  23 C23           -0.0181    -7.1400    -0.4991 C.ar    
  24 C24           -0.9104    -6.4700     0.3179 C.ar    
  25 C25           -0.8781    -5.0915     0.3942 C.ar    
  26 H26            1.5940    -1.4497     0.3722 H       
  27 H27            0.9241    -2.5130    -0.3393 H       
  28 H28           -5.3241    -3.0988    -0.2416 H       
  29 H29           -6.6254    -2.0552    -0.0405 H       
  30 H30           -3.6797     1.1837     0.5746 H       
  31 H31           -2.0473     1.5649     0.4612 H       
  32 H32            1.6602    -4.5012    -1.7643 H       
  33 H33            1.1993     3.8608     0.3734 H       
  34 H34            3.6247     4.1365     0.6264 H       
  35 H35            5.0945     2.1692     0.7617 H       
  36 H36            4.1520    -0.0969     0.6451 H       
  37 H37            1.6001    -6.9585    -1.8845 H       
  38 H38           -0.0425    -8.2183    -0.5535 H       
  39 H39           -1.6303    -7.0258     0.9003 H       
  40 H40           -1.5750    -4.5690     1.0327 H       
@<TRIPOS>BOND
   1    1    5 1
   2    1   17 1
   3    1   26 1
   4    2    3 1
   5    2   13 1
   6    2   27 1
   7    3    4 2
   8    3    6 1
   9    4    5 1
  10    4    8 1
  11    5   15 2
  12    6    7 1
  13    7    8 2
  14    7    9 1
  15    8   12 1
  16    9   10 2
  17    9   11 am
  18   11   28 1
  19   11   29 1
  20   12   30 1
  21   12   31 1
  22   13   14 ar
  23   13   25 ar
  24   14   22 ar
  25   14   32 1
  26   15   16 1
  27   16   17 ar
  28   16   18 ar
  29   17   21 ar
  30   18   19 ar
  31   18   33 1
  32   19   20 ar
  33   19   34 1
  34   20   21 ar
  35   20   35 1
  36   21   36 1
  37   22   23 ar
  38   22   37 1
  39   23   24 ar
  40   23   38 1
  41   24   25 ar
  42   24   39 1
  43   25   40 1

#	End of record

