#	Name: ASD01230117
#	Creating user name:	WinNT
#	Creation time:	15. 06. 2019 19:11

#	Modifying user name:	WinNT
#	Modification time:	15. 06. 2019 19:11

#	Program:	/corina/corina34_cracker 3.40 0067  02.08.2006

@<TRIPOS>MOLECULE
ASD01230117
  53   57    0    0    0
SMALL
NO_CHARGES


@<TRIPOS>ATOM
   1 N1            -0.0166     1.3763     0.0096 N.pl3   
   2 C2             0.0021    -0.0041     0.0020 C.ar    
   3 C3             0.9828     3.6792    -2.0553 C.ar    
   4 C4             1.5387     2.5709    -1.4197 C.ar    
   5 C5             1.1514     2.2606     0.0032 C.3     
   6 C6             1.3127     3.9857    -3.3417 C.ar    
   7 C7             2.2222     3.1776    -4.0357 C.ar    
   8 C8             2.7908     2.0486    -3.3930 C.ar    
   9 C9             2.4253     1.7641    -2.0634 C.ar    
  10 C10            2.5890     3.4649    -5.3748 C.ar    
  11 C11            3.4959     2.6174    -5.9962 C.ar    
  12 C12            4.0113     1.5234    -5.2917 C.ar    
  13 N13            3.6571     1.2731    -4.0455 N.ar    
  14 C14            4.9796     0.6229    -5.9627 C.2     
  15 N15            5.4864    -0.4356    -5.3000 N.am    
  16 O16            5.3162     0.8393    -7.1099 O.2     
  17 C17            2.0220     4.6320    -6.0883 C.ar    
  18 C18           -1.3429    -0.4102     0.0127 C.ar    
  19 N19           -2.0969     0.7190     0.0260 N.2     
  20 C20           -1.3208     1.7632     0.0182 C.2     
  21 C21           -1.7971     3.1929     0.0285 C.3     
  22 C22            1.0114    -0.9573    -0.0123 C.ar    
  23 C23            0.6855    -2.2967    -0.0160 C.ar    
  24 C24           -0.6432    -2.6974    -0.0059 C.ar    
  25 C25           -1.6494    -1.7736     0.0090 C.ar    
  26 C26            2.8650     5.5238    -6.7520 C.ar    
  27 C27            2.3321     6.6093    -7.4150 C.ar    
  28 C28            0.9615     6.8151    -7.4227 C.ar    
  29 C29            0.1198     5.9320    -6.7649 C.ar    
  30 C30            0.6426     4.8403    -6.1038 C.ar    
  31 F31            0.4443     7.8802    -8.0733 F       
  32 C32           -1.9393     3.6728     1.4743 C.3     
  33 F33           -0.6996     3.5896     2.1173 F       
  34 F34           -2.3814     5.0000     1.4839 F       
  35 F35           -2.8668     2.8674     2.1438 F       
  36 H36            0.2779     4.3008    -1.5233 H       
  37 H37            0.9087     3.1869     0.5240 H       
  38 H38            1.9830     1.7677     0.5069 H       
  39 H39            0.8747     4.8473    -3.8236 H       
  40 H40            2.8474     0.9091    -1.5563 H       
  41 H41            3.8013     2.8006    -7.0157 H       
  42 H42            5.2178    -0.6083    -4.3841 H       
  43 H43            6.1199    -1.0246    -5.7389 H       
  44 H44           -1.0744     3.8204    -0.4932 H       
  45 H45           -2.7630     3.2578    -0.4725 H       
  46 H46            2.0469    -0.6508    -0.0210 H       
  47 H47            1.4695    -3.0394    -0.0272 H       
  48 H48           -0.8840    -3.7501    -0.0097 H       
  49 H49           -2.6800    -2.0964     0.0172 H       
  50 H50            3.9332     5.3645    -6.7463 H       
  51 H51            2.9839     7.3004    -7.9288 H       
  52 H52           -0.9475     6.0966    -6.7738 H       
  53 H53           -0.0141     4.1528    -5.5915 H       
@<TRIPOS>BOND
   1    1    2 1
   2    1    5 1
   3    1   20 1
   4    2   18 ar
   5    2   22 ar
   6    3    4 ar
   7    3    6 ar
   8    3   36 1
   9    4    5 1
  10    4    9 ar
  11    5   37 1
  12    5   38 1
  13    6    7 ar
  14    6   39 1
  15    7    8 ar
  16    7   10 ar
  17    8    9 ar
  18    8   13 ar
  19    9   40 1
  20   10   11 ar
  21   10   17 1
  22   11   12 ar
  23   11   41 1
  24   12   13 ar
  25   12   14 1
  26   14   15 am
  27   14   16 2
  28   15   42 1
  29   15   43 1
  30   17   26 ar
  31   17   30 ar
  32   18   19 1
  33   18   25 ar
  34   19   20 2
  35   20   21 1
  36   21   32 1
  37   21   44 1
  38   21   45 1
  39   22   23 ar
  40   22   46 1
  41   23   24 ar
  42   23   47 1
  43   24   25 ar
  44   24   48 1
  45   25   49 1
  46   26   27 ar
  47   26   50 1
  48   27   28 ar
  49   27   51 1
  50   28   29 ar
  51   28   31 1
  52   29   30 ar
  53   29   52 1
  54   30   53 1
  55   32   33 1
  56   32   34 1
  57   32   35 1

#	End of record

