#	Name: ASD01000145
#	Creating user name:	WinNT
#	Creation time:	15. 06. 2019 18:54

#	Modifying user name:	WinNT
#	Modification time:	15. 06. 2019 18:54

#	Program:	/corina/corina34_cracker 3.40 0067  02.08.2006

@<TRIPOS>MOLECULE
ASD01000145
  51   54    0    0    0
SMALL
NO_CHARGES


@<TRIPOS>ATOM
   1 C1             0.3218     1.7397    -1.6890 C.ar    
   2 C2             0.3082     0.3672    -1.9246 C.ar    
   3 C3             1.4052    -0.4209    -1.5556 C.ar    
   4 C4             2.4969     0.1468    -0.9629 C.ar    
   5 C5             1.4341     2.3214    -1.0845 C.ar    
   6 N6             1.7435     3.5970    -0.7303 N.2     
   7 C7             2.5275     1.5140    -0.7204 C.ar    
   8 N8             3.4591     2.3626    -0.1533 N.pl3   
   9 C9             2.9331     3.6233    -0.1834 C.2     
  10 C10           -0.8661    -0.2586    -2.5647 C.2     
  11 N11           -0.8810    -1.5867    -2.7935 N.am    
  12 O12           -1.8196     0.4242    -2.8853 O.2     
  13 N13            3.5616     4.7555     0.2920 N.pl3   
  14 C14            2.8750     5.9761     0.3252 C.ar    
  15 C15            4.7689     1.9811     0.3808 C.3     
  16 C16            5.7746     1.9349    -0.7406 C.ar    
  17 C17            5.4045     2.3156    -2.0172 C.ar    
  18 C18            7.0684     1.5174    -0.4918 C.ar    
  19 C19            7.9911     1.4750    -1.5206 C.ar    
  20 C20            7.6194     1.8497    -2.7980 C.ar    
  21 C21            6.3269     2.2732    -3.0457 C.ar    
  22 C22            7.4736     1.1088     0.9011 C.3     
  23 C23            1.5176     8.3894     0.3907 C.ar    
  24 C24            0.8239     7.2080     0.1593 C.ar    
  25 C25            1.5008     6.0053     0.1267 C.ar    
  26 C26            3.5679     7.1562     0.5621 C.ar    
  27 C27            2.8916     8.3592     0.5948 C.ar    
  28 S28            0.6540     9.9247     0.4324 S.3     
  29 C29            1.9734    11.1263     0.7578 C.3     
  30 F30            8.8487     0.8528     0.9305 F       
  31 F31            7.1722     2.1410     1.7961 F       
  32 F32            6.7761    -0.0465     1.2696 F       
  33 H33           -0.5219     2.3494    -1.9768 H       
  34 H34            1.3878    -1.4848    -1.7406 H       
  35 H35            3.3383    -0.4691    -0.6817 H       
  36 H36           -0.1203    -2.1315    -2.5376 H       
  37 H37           -1.6525    -1.9978    -3.2139 H       
  38 H38            4.4790     4.7065     0.6033 H       
  39 H39            5.0859     2.7135     1.1232 H       
  40 H40            4.6990     0.9982     0.8468 H       
  41 H41            4.3946     2.6457    -2.2108 H       
  42 H42            9.0023     1.1494    -1.3260 H       
  43 H43            8.3403     1.8169    -3.6016 H       
  44 H44            6.0377     2.5703    -4.0429 H       
  45 H45           -0.2441     7.2311     0.0006 H       
  46 H46            0.9617     5.0870    -0.0535 H       
  47 H47            4.6359     7.1327     0.7211 H       
  48 H48            3.4311     9.2774     0.7747 H       
  49 H49            2.4539    10.8900     1.7072 H       
  50 H50            2.7109    11.0821    -0.0436 H       
  51 H51            1.5482    12.1288     0.8054 H       
@<TRIPOS>BOND
   1    1    2 ar
   2    1    5 ar
   3    1   33 1
   4    2    3 ar
   5    2   10 1
   6    3    4 ar
   7    3   34 1
   8    4    7 ar
   9    4   35 1
  10    5    7 ar
  11    5    6 1
  12    6    9 2
  13    7    8 1
  14    8    9 1
  15    8   15 1
  16    9   13 1
  17   10   11 am
  18   10   12 2
  19   11   36 1
  20   11   37 1
  21   13   14 1
  22   13   38 1
  23   14   26 ar
  24   14   25 ar
  25   15   16 1
  26   15   39 1
  27   15   40 1
  28   16   18 ar
  29   16   17 ar
  30   17   21 ar
  31   17   41 1
  32   18   19 ar
  33   18   22 1
  34   19   20 ar
  35   19   42 1
  36   20   21 ar
  37   20   43 1
  38   21   44 1
  39   22   30 1
  40   22   31 1
  41   22   32 1
  42   23   24 ar
  43   23   27 ar
  44   23   28 1
  45   24   25 ar
  46   24   45 1
  47   25   46 1
  48   26   27 ar
  49   26   47 1
  50   27   48 1
  51   28   29 1
  52   29   49 1
  53   29   50 1
  54   29   51 1

#	End of record

