#	Name: ASD01882834
#	Creating user name:	WinNT
#	Creation time:	15. 06. 2019 19:45

#	Modifying user name:	WinNT
#	Modification time:	15. 06. 2019 19:45

#	Program:	/corina/corina34_cracker 3.40 0067  02.08.2006

@<TRIPOS>MOLECULE
ASD01882834
  38   39    0    0    0
SMALL
NO_CHARGES


@<TRIPOS>ATOM
   1 N1            -0.0165     1.3692     0.0096 N.pl3   
   2 O2             1.1412    -0.7243    -0.0127 O.3     
   3 C3             0.0021    -0.0041     0.0020 C.2     
   4 N4            -1.0753    -0.7270     0.0089 N.2     
   5 C5            -0.6825    -2.1495    -0.0119 C.3     
   6 C6             0.8073    -2.0656    -0.4248 C.3     
   7 C7             1.6461    -3.0976     0.3317 C.3     
   8 O8             3.0177    -2.9666    -0.0470 O.3     
   9 C9             3.9031    -3.8156     0.5380 C.ar    
  10 C10            5.2508    -3.7438     0.2165 C.ar    
  11 C11            6.1488    -4.6080     0.8125 C.ar    
  12 C12            5.7054    -5.5439     1.7286 C.ar    
  13 C13            4.3627    -5.6177     2.0503 C.ar    
  14 C14            3.4616    -4.7517     1.4618 C.ar    
  15 C15            6.6872    -6.4854     2.3773 C.3     
  16 C16            7.7338    -5.6789     3.1487 C.3     
  17 C17            5.9443    -7.4117     3.3421 C.3     
  18 C18            7.3803    -7.3215     1.2995 C.3     
  19 H19            0.8168     1.8655     0.0043 H       
  20 H20           -0.8631     1.8427     0.0162 H       
  21 H21           -0.7880    -2.5971     0.9763 H       
  22 H22           -1.2610    -2.7025    -0.7520 H       
  23 H23            0.9222    -2.1841    -1.5022 H       
  24 H24            1.5477    -2.9301     1.4042 H       
  25 H25            1.2958    -4.1004     0.0869 H       
  26 H26            5.5975    -3.0132    -0.4992 H       
  27 H27            7.1980    -4.5528     0.5624 H       
  28 H28            4.0188    -6.3501     2.7657 H       
  29 H29            2.4137    -4.8065     1.7170 H       
  30 H30            7.2401    -5.0832     3.9165 H       
  31 H31            8.4440    -6.3599     3.6178 H       
  32 H32            8.2631    -5.0190     2.4613 H       
  33 H33            5.1987    -7.9863     2.7926 H       
  34 H34            6.6545    -8.0927     3.8113 H       
  35 H35            5.4506    -6.8160     4.1099 H       
  36 H36            7.9095    -6.6616     0.6121 H       
  37 H37            8.0904    -8.0025     1.7687 H       
  38 H38            6.6347    -7.8961     0.7500 H       
@<TRIPOS>BOND
   1    1    3 1
   2    1   19 1
   3    1   20 1
   4    2    3 1
   5    2    6 1
   6    3    4 2
   7    4    5 1
   8    5    6 1
   9    5   21 1
  10    5   22 1
  11    6    7 1
  12    6   23 1
  13    7    8 1
  14    7   24 1
  15    7   25 1
  16    8    9 1
  17    9   10 ar
  18    9   14 ar
  19   10   11 ar
  20   10   26 1
  21   11   12 ar
  22   11   27 1
  23   12   13 ar
  24   12   15 1
  25   13   14 ar
  26   13   28 1
  27   14   29 1
  28   15   16 1
  29   15   18 1
  30   15   17 1
  31   16   30 1
  32   16   31 1
  33   16   32 1
  34   17   33 1
  35   17   34 1
  36   17   35 1
  37   18   36 1
  38   18   37 1
  39   18   38 1

#	End of record

