#	Name: ASD01881094
#	Creating user name:	WinNT
#	Creation time:	15. 06. 2019 19:42

#	Modifying user name:	WinNT
#	Modification time:	15. 06. 2019 19:42

#	Program:	/corina/corina34_cracker 3.40 0067  02.08.2006

@<TRIPOS>MOLECULE
ASD01881094
  39   41    0    0    0
SMALL
NO_CHARGES


@<TRIPOS>ATOM
   1 C1            -0.0164     1.3576     0.0095 C.2     
   2 C2             0.0021    -0.0041     0.0020 C.2     
   3 C3             1.2440    -0.6751    -0.0134 C.2     
   4 C4             2.4024     0.0465    -0.0206 C.2     
   5 N5             2.3700     1.4024    -0.0130 N.am    
   6 C6             1.1986     2.0652     0.0017 C.2     
   7 C7             1.2897    -2.1584    -0.0214 C.ar    
   8 C8             0.8124    -2.8774     1.0728 C.ar    
   9 C9             0.8562    -4.2560     1.0626 C.ar    
  10 C10            1.3751    -4.9272    -0.0361 C.ar    
  11 C11            1.8513    -4.2137    -1.1274 C.ar    
  12 C12            1.8048    -2.8351    -1.1254 C.ar    
  13 O13            1.4175    -6.2855    -0.0431 O.3     
  14 C14            1.9641    -6.9115    -1.2056 C.3     
  15 O15            1.1911     3.2857     0.0083 O.2     
  16 C16            3.6266     2.1555    -0.0210 C.3     
  17 C17            4.0439     2.4213    -1.4444 C.ar    
  18 C18            3.8925     3.6842    -1.9844 C.ar    
  19 C19            4.2755     3.9291    -3.2900 C.ar    
  20 C20            4.8107     2.9101    -4.0574 C.ar    
  21 C21            4.9630     1.6452    -3.5184 C.ar    
  22 C22            4.5844     1.4013    -2.2096 C.ar    
  23 F23            4.7330     0.1666    -1.6819 F       
  24 Cl24           5.2908     3.2185    -5.6970 Cl      
  25 H25           -0.9563     1.8895     0.0169 H       
  26 H26           -0.9217    -0.5635     0.0082 H       
  27 H27            3.3528    -0.4664    -0.0321 H       
  28 H28            0.4089    -2.3558     1.9281 H       
  29 H29            0.4868    -4.8138     1.9104 H       
  30 H30            2.2545    -4.7386    -1.9808 H       
  31 H31            2.1751    -2.2805    -1.9749 H       
  32 H32            1.9387    -7.9941    -1.0812 H       
  33 H33            1.3753    -6.6323    -2.0794 H       
  34 H34            2.9951    -6.5857    -1.3429 H       
  35 H35            3.4857     3.1028     0.4993 H       
  36 H36            4.4006     1.5761     0.4824 H       
  37 H37            3.4745     4.4804    -1.3862 H       
  38 H38            4.1565     4.9165    -3.7112 H       
  39 H39            5.3807     0.8494    -4.1173 H       
@<TRIPOS>BOND
   1    1    2 2
   2    1    6 1
   3    1   25 1
   4    2    3 1
   5    2   26 1
   6    3    4 2
   7    3    7 1
   8    4    5 1
   9    4   27 1
  10    5    6 am
  11    5   16 1
  12    6   15 2
  13    7    8 ar
  14    7   12 ar
  15    8    9 ar
  16    8   28 1
  17    9   10 ar
  18    9   29 1
  19   10   11 ar
  20   10   13 1
  21   11   12 ar
  22   11   30 1
  23   12   31 1
  24   13   14 1
  25   14   32 1
  26   14   33 1
  27   14   34 1
  28   16   17 1
  29   16   35 1
  30   16   36 1
  31   17   18 ar
  32   17   22 ar
  33   18   19 ar
  34   18   37 1
  35   19   20 ar
  36   19   38 1
  37   20   21 ar
  38   20   24 1
  39   21   22 ar
  40   21   39 1
  41   22   23 1

#	End of record

