#	Name: ASD07301392
#	Creating user name:	WinNT
#	Creation time:	15. 06. 2019 21:11

#	Modifying user name:	WinNT
#	Modification time:	15. 06. 2019 21:11

#	Program:	/corina/corina34_cracker 3.40 0067  02.08.2006

@<TRIPOS>MOLECULE
ASD07301392
  42   43    0    0    0
SMALL
NO_CHARGES


@<TRIPOS>ATOM
   1 C1            -0.0168     1.4639     0.0592 C.2     
   2 C2             0.0021    -0.0040     0.0012 C.2     
   3 C3             1.2754    -0.6353    -0.0640 C.2     
   4 C4             2.3769     0.1606    -0.0679 C.2     
   5 N5             2.2571     1.5100    -0.0114 N.pl3   
   6 N6             1.1286     2.1146     0.0482 N.2     
   7 O7            -1.0317    -0.6550     0.0091 O.2     
   8 C8             3.4240     2.2811    -0.0184 C.ar    
   9 C9             3.3437     3.6648    -0.1150 C.ar    
  10 C10            4.4976     4.4231    -0.1211 C.ar    
  11 C11            5.7325     3.8066    -0.0313 C.ar    
  12 C12            5.8161     2.4298     0.0650 C.ar    
  13 C13            4.6656     1.6657     0.0770 C.ar    
  14 C14            4.4114     5.9239    -0.2264 C.3     
  15 F15            4.3331     6.4776     1.0560 F       
  16 F16            5.5501     6.4120    -0.8763 F       
  17 F17            3.2710     6.2755    -0.9565 F       
  18 O18            1.3865    -1.9893    -0.1200 O.3     
  19 C19            2.7078    -2.5297    -0.1832 C.3     
  20 C20           -1.2982     2.1977     0.1225 C.2     
  21 C21           -1.3018     3.6094     0.1779 C.2     
  22 C22           -2.4738     4.2806     0.2358 C.2     
  23 O23           -2.3514     1.5852     0.1270 O.2     
  24 N24           -2.4773     5.6450     0.2893 N.pl3   
  25 C25           -1.2109     6.3814     0.2839 C.3     
  26 C26           -3.7474     6.3723     0.3521 C.3     
  27 H27            3.3587    -0.2867    -0.1163 H       
  28 H28            2.3797     4.1468    -0.1855 H       
  29 H29            6.6335     4.4020    -0.0367 H       
  30 H30            6.7820     1.9516     0.1346 H       
  31 H31            4.7315     0.5906     0.1563 H       
  32 H32            3.2103    -2.1574    -1.0759 H       
  33 H33            3.2672    -2.2263     0.7018 H       
  34 H34            2.6539    -3.6176    -0.2236 H       
  35 H35           -0.3682     4.1523     0.1739 H       
  36 H36           -3.4074     3.7377     0.2398 H       
  37 H37           -0.9246     6.6043    -0.7439 H       
  38 H38           -1.3297     7.3126     0.8380 H       
  39 H39           -0.4362     5.7755     0.7537 H       
  40 H40           -4.0347     6.5126     1.3942 H       
  41 H41           -3.6334     7.3446    -0.1273 H       
  42 H42           -4.5192     5.8011    -0.1638 H       
@<TRIPOS>BOND
   1    1    2 1
   2    1    6 2
   3    1   20 1
   4    2    3 1
   5    2    7 2
   6    3    4 2
   7    3   18 1
   8    4    5 1
   9    4   27 1
  10    5    6 1
  11    5    8 1
  12    8    9 ar
  13    8   13 ar
  14    9   10 ar
  15    9   28 1
  16   10   11 ar
  17   10   14 1
  18   11   12 ar
  19   11   29 1
  20   12   13 ar
  21   12   30 1
  22   13   31 1
  23   14   15 1
  24   14   16 1
  25   14   17 1
  26   18   19 1
  27   19   32 1
  28   19   33 1
  29   19   34 1
  30   20   21 1
  31   20   23 2
  32   21   22 2
  33   21   35 1
  34   22   24 1
  35   22   36 1
  36   24   25 1
  37   24   26 1
  38   25   37 1
  39   25   38 1
  40   25   39 1
  41   26   40 1
  42   26   41 1
  43   26   42 1

#	End of record

