#	Name: ASD02508337
#	Creating user name:	WinNT
#	Creation time:	15. 06. 2019 20:24

#	Modifying user name:	WinNT
#	Modification time:	15. 06. 2019 20:24

#	Program:	/corina/corina34_cracker 3.40 0067  02.08.2006

@<TRIPOS>MOLECULE
ASD02508337
  53   57    0    0    0
SMALL
NO_CHARGES


@<TRIPOS>ATOM
   1 C1            -0.1609     1.5297     0.0126 C.ar    
   2 C2            -0.2490     0.1470    -0.0242 C.ar    
   3 C3            -1.4810    -0.4778     0.0056 C.ar    
   4 C4            -2.6392     0.2739     0.0720 C.ar    
   5 C5            -2.5624     1.6542     0.1091 C.ar    
   6 C6            -1.3355     2.2819     0.0854 C.ar    
   7 S7            -4.2095    -0.5247     0.1087 S.o2    
   8 C8            -4.6099    -0.8104     1.8007 C.ar    
   9 C9            -5.3083     0.1450     2.5154 C.ar    
  10 C10           -4.2302    -1.9915     2.4094 C.ar    
  11 C11           -4.5448    -2.2195     3.7409 C.ar    
  12 C12           -5.2398    -1.2556     4.4616 C.ar    
  13 C13           -5.6232    -0.0750     3.8428 C.ar    
  14 O14           -4.1709    -3.3907     4.3248 O.3     
  15 C15           -4.1748    -3.4263     5.7561 C.3     
  16 C16           -5.4881    -2.8039     6.2490 C.3     
  17 O17           -5.5523    -1.4558     5.7711 O.3     
  18 N18            1.1655     1.9624    -0.0265 N.am    
  19 C19            2.0688     0.8107    -0.0951 C.3     
  20 C20            1.1502    -0.4222    -0.0951 C.3     
  21 O21           -5.1528     0.4229    -0.3724 O.2     
  22 O22           -4.0229    -1.8040    -0.4810 O.2     
  23 S23            1.6480     3.5464     0.0003 S.o2    
  24 O24            3.0099     3.5579    -0.4051 O.2     
  25 O25            0.6330     4.2862    -0.6642 O.2     
  26 C26            1.6251     4.0702     1.6824 C.ar    
  27 C27            0.7481     5.0591     2.0864 C.ar    
  28 C28            0.7302     5.4701     3.4063 C.ar    
  29 C29            1.5890     4.8919     4.3220 C.ar    
  30 C30            2.4657     3.9021     3.9180 C.ar    
  31 C31            2.4806     3.4881     2.5994 C.ar    
  32 C32            3.4362     2.4092     2.1591 C.3     
  33 H33           -1.5393    -1.5558    -0.0235 H       
  34 H34           -3.4668     2.2423     0.1610 H       
  35 H35           -1.2825     3.3602     0.1147 H       
  36 H36           -5.6079     1.0650     2.0355 H       
  37 H37           -3.6883    -2.7380     1.8477 H       
  38 H38           -6.1647     0.6750     4.4002 H       
  39 H39           -4.1063    -4.4590     6.0982 H       
  40 H40           -3.3301    -2.8545     6.1403 H       
  41 H41           -6.3330    -3.3723     5.8601 H       
  42 H42           -5.5112    -2.8091     7.3387 H       
  43 H43            2.6561     0.8448    -1.0127 H       
  44 H44            2.7256     0.7928     0.7747 H       
  45 H45            1.3514    -1.0465     0.7754 H       
  46 H46            1.2819    -0.9946    -1.0134 H       
  47 H47            0.0770     5.5109     1.3710 H       
  48 H48            0.0453     6.2433     3.7219 H       
  49 H49            1.5755     5.2135     5.3529 H       
  50 H50            3.1371     3.4505     4.6334 H       
  51 H51            2.9978     1.4316     2.3596 H       
  52 H52            3.6293     2.5087     1.0910 H       
  53 H53            4.3726     2.5070     2.7083 H       
@<TRIPOS>BOND
   1    1    2 ar
   2    1   18 1
   3    1    6 ar
   4    2    3 ar
   5    2   20 1
   6    3    4 ar
   7    3   33 1
   8    4    5 ar
   9    4    7 1
  10    5    6 ar
  11    5   34 1
  12    6   35 1
  13    7    8 1
  14    7   21 2
  15    7   22 2
  16    8    9 ar
  17    8   10 ar
  18    9   13 ar
  19    9   36 1
  20   10   11 ar
  21   10   37 1
  22   11   12 ar
  23   11   14 1
  24   12   13 ar
  25   12   17 1
  26   13   38 1
  27   14   15 1
  28   15   16 1
  29   15   39 1
  30   15   40 1
  31   16   17 1
  32   16   41 1
  33   16   42 1
  34   18   19 1
  35   18   23 am
  36   19   20 1
  37   19   43 1
  38   19   44 1
  39   20   45 1
  40   20   46 1
  41   23   24 2
  42   23   25 2
  43   23   26 1
  44   26   27 ar
  45   26   31 ar
  46   27   28 ar
  47   27   47 1
  48   28   29 ar
  49   28   48 1
  50   29   30 ar
  51   29   49 1
  52   30   31 ar
  53   30   50 1
  54   31   32 1
  55   32   51 1
  56   32   52 1
  57   32   53 1

#	End of record

