#	Name: ASD07931889
#	Creating user name:	WinNT
#	Creation time:	15. 06. 2019 21:13

#	Modifying user name:	WinNT
#	Modification time:	15. 06. 2019 21:13

#	Program:	/corina/corina34_cracker 3.40 0067  02.08.2006

@<TRIPOS>MOLECULE
ASD07931889
  41   42    0    0    0
SMALL
NO_CHARGES


@<TRIPOS>ATOM
   1 C1            -0.0187     1.5258     0.0104 C.3     
   2 C2             0.0021    -0.0041     0.0020 C.3     
   3 N3             0.6059    -0.4925     1.2489 N.3     
   4 C4             0.6428    -1.9607     1.2762 C.3     
   5 O5             0.4347    -2.0913     3.7095 O.3     
   6 C6             1.2768    -2.4307     2.5869 C.3     
   7 C7             1.3410    -3.9785     2.6380 C.3     
   8 C8             1.3765    -4.2515     4.1614 C.3     
   9 C9             0.8010    -2.9671     4.7889 C.3     
  10 C10           -0.4154    -3.3003     5.6137 C.ar    
  11 C11           -1.4368    -2.3779     5.7428 C.ar    
  12 C12           -2.5526    -2.6836     6.4995 C.ar    
  13 C13           -2.6471    -3.9118     7.1267 C.ar    
  14 C14           -1.6261    -4.8346     6.9969 C.ar    
  15 C15           -0.5123    -4.5306     6.2366 C.ar    
  16 C16           -3.8630    -4.2446     7.9524 C.3     
  17 F17           -4.8282    -4.8481     7.1391 F       
  18 F18           -3.5029    -5.1237     8.9795 F       
  19 F19           -4.3868    -3.0711     8.5053 F       
  20 C20            1.8603    -2.2968     5.6661 C.3     
  21 O21            1.3220     2.0204     0.0003 O.3     
  22 H22           -0.5459     1.8868    -0.8726 H       
  23 H23           -0.5289     1.8773     0.9072 H       
  24 H24           -1.0175    -0.3808    -0.0798 H       
  25 H25            0.5883    -0.3548    -0.8473 H       
  26 H26            1.5284    -0.1051     1.3799 H       
  27 H27           -0.3723    -2.3511     1.2032 H       
  28 H28            1.2334    -2.3251     0.4357 H       
  29 H29            2.2711    -2.0011     2.7092 H       
  30 H30            0.4536    -4.4198     2.1843 H       
  31 H31            2.2466    -4.3464     2.1556 H       
  32 H32            0.7527    -5.1102     4.4098 H       
  33 H33            2.4011    -4.4137     4.4961 H       
  34 H34           -1.3630    -1.4183     5.2528 H       
  35 H35           -3.3503    -1.9626     6.6010 H       
  36 H36           -1.6998    -5.7941     7.4872 H       
  37 H37            0.2838    -5.2529     6.1322 H       
  38 H38            1.4505    -1.3829     6.0962 H       
  39 H39            2.1518    -2.9763     6.4669 H       
  40 H40            2.7331    -2.0537     5.0601 H       
  41 H41            1.3852     2.9853     0.0049 H       
@<TRIPOS>BOND
   1    1    2 1
   2    1   21 1
   3    1   22 1
   4    1   23 1
   5    2    3 1
   6    2   24 1
   7    2   25 1
   8    3    4 1
   9    3   26 1
  10    4    6 1
  11    4   27 1
  12    4   28 1
  13    5    6 1
  14    5    9 1
  15    6    7 1
  16    6   29 1
  17    7    8 1
  18    7   30 1
  19    7   31 1
  20    8    9 1
  21    8   32 1
  22    8   33 1
  23    9   10 1
  24    9   20 1
  25   10   11 ar
  26   10   15 ar
  27   11   12 ar
  28   11   34 1
  29   12   13 ar
  30   12   35 1
  31   13   14 ar
  32   13   16 1
  33   14   15 ar
  34   14   36 1
  35   15   37 1
  36   16   17 1
  37   16   18 1
  38   16   19 1
  39   20   38 1
  40   20   39 1
  41   20   40 1
  42   21   41 1

#	End of record

