#	Name: ASD04640005
#	Creating user name:	WinNT
#	Creation time:	15. 06. 2019 20:52

#	Modifying user name:	WinNT
#	Modification time:	15. 06. 2019 20:52

#	Program:	/corina/corina34_cracker 3.40 0067  02.08.2006

@<TRIPOS>MOLECULE
ASD04640005
  65   68    0    0    0
SMALL
NO_CHARGES


@<TRIPOS>ATOM
   1 C1             0.1172     1.2893    -1.1873 C.ar    
   2 C2             0.1320    -0.0850    -1.0814 C.ar    
   3 C3             1.3261    -0.7595    -0.8327 C.ar    
   4 C4             2.5058    -0.0659    -0.6894 C.ar    
   5 C5             2.5145     1.3223    -0.7925 C.ar    
   6 C6             1.3111     2.0090    -1.0436 C.ar    
   7 N7             3.5133     2.2652    -0.6980 N.pl3   
   8 C8             2.9612     3.5175    -0.8837 C.2     
   9 C9             1.6252     3.3886    -1.0955 C.2     
  10 C10            3.7013     4.7879    -0.8563 C.2     
  11 O11            3.1134     5.8383    -1.0324 O.2     
  12 N12            5.0310     4.7886    -0.6360 N.am    
  13 C13            5.7683     6.0543    -0.6087 C.3     
  14 C14            7.2491     5.7762    -0.3425 C.3     
  15 C15            8.0191     7.0980    -0.3139 C.3     
  16 C16            9.4747     6.8319     0.0750 C.3     
  17 N17           10.2207     8.0974     0.0751 N.3     
  18 C18           11.6032     7.8938     0.5299 C.3     
  19 C19            9.5422     9.1086     0.8977 C.3     
  20 C20           10.3061    10.4318     0.8079 C.3     
  21 N21           11.6886    10.2282     1.2627 N.3     
  22 C22           12.3671     9.2170     0.4401 C.3     
  23 C23           12.3993    11.4339     1.2628 C.ar    
  24 C24           12.5616    12.1457     0.0832 C.ar    
  25 C25           12.9408    11.9254     2.4486 C.ar    
  26 C26           13.6427    13.1194     2.4429 C.ar    
  27 C27           13.8050    13.8208     1.2623 C.ar    
  28 C28           13.2635    13.3364     0.0860 C.ar    
  29 O29            7.9747     7.7032    -1.6077 O.3     
  30 O30           12.7800    11.2347     3.6092 O.3     
  31 C31           13.3623    11.7989     4.7859 C.3     
  32 O32           -1.0248    -0.7864    -1.2199 O.3     
  33 C33           -0.9401    -2.2077    -1.0988 C.3     
  34 H34           -0.8090     1.8085    -1.3845 H       
  35 H35            1.3253    -1.8365    -0.7514 H       
  36 H36            3.4252    -0.5987    -0.4966 H       
  37 H37            4.4503     2.0804    -0.5285 H       
  38 H38            0.9279     4.1942    -1.2720 H       
  39 H39            5.4997     3.9511    -0.4956 H       
  40 H40            5.6602     6.5585    -1.5689 H       
  41 H41            5.3700     6.6897     0.1823 H       
  42 H42            7.3572     5.2719     0.6178 H       
  43 H43            7.6473     5.1407    -1.1335 H       
  44 H44            7.5645     7.7676     0.4162 H       
  45 H45            9.5098     6.3894     1.0705 H       
  46 H46            9.9232     6.1459    -0.6436 H       
  47 H47           11.5986     7.5459     1.5629 H       
  48 H48           12.0882     7.1502    -0.1024 H       
  49 H49            8.5247     9.2507     0.5336 H       
  50 H50            9.5142     8.7746     1.9349 H       
  51 H51           10.3106    10.7797    -0.2251 H       
  52 H52            9.8210    11.1754     1.4402 H       
  53 H53           13.3846     9.0749     0.8043 H       
  54 H54           12.3950     9.5510    -0.5971 H       
  55 H55           12.1400    11.7694    -0.8371 H       
  56 H56           14.0632    13.5029     3.3608 H       
  57 H57           14.3524    14.7518     1.2599 H       
  58 H58           13.3931    13.8875    -0.8337 H       
  59 H59            8.3629     7.1619    -2.3086 H       
  60 H60           14.4394    11.8940     4.6485 H       
  61 H61           12.9310    12.7831     4.9687 H       
  62 H62           13.1607    11.1499     5.6381 H       
  63 H63           -0.2677    -2.5980    -1.8628 H       
  64 H64           -0.5573    -2.4661    -0.1115 H       
  65 H65           -1.9307    -2.6432    -1.2298 H       
@<TRIPOS>BOND
   1    1    2 ar
   2    1    6 ar
   3    1   34 1
   4    2    3 ar
   5    2   32 1
   6    3    4 ar
   7    3   35 1
   8    4    5 ar
   9    4   36 1
  10    5    6 ar
  11    5    7 1
  12    6    9 1
  13    7    8 1
  14    7   37 1
  15    8    9 2
  16    8   10 1
  17    9   38 1
  18   10   11 2
  19   10   12 am
  20   12   13 1
  21   12   39 1
  22   13   14 1
  23   13   40 1
  24   13   41 1
  25   14   15 1
  26   14   42 1
  27   14   43 1
  28   15   16 1
  29   15   29 1
  30   15   44 1
  31   16   17 1
  32   16   45 1
  33   16   46 1
  34   17   18 1
  35   17   19 1
  36   18   22 1
  37   18   47 1
  38   18   48 1
  39   19   20 1
  40   19   49 1
  41   19   50 1
  42   20   21 1
  43   20   51 1
  44   20   52 1
  45   21   22 1
  46   21   23 1
  47   22   53 1
  48   22   54 1
  49   23   24 ar
  50   23   25 ar
  51   24   28 ar
  52   24   55 1
  53   25   26 ar
  54   25   30 1
  55   26   27 ar
  56   26   56 1
  57   27   28 ar
  58   27   57 1
  59   28   58 1
  60   29   59 1
  61   30   31 1
  62   31   60 1
  63   31   61 1
  64   31   62 1
  65   32   33 1
  66   33   63 1
  67   33   64 1
  68   33   65 1

#	End of record

