#	Name: ASD01910053
#	Creating user name:	WinNT
#	Creation time:	15. 06. 2019 19:55

#	Modifying user name:	WinNT
#	Modification time:	15. 06. 2019 19:55

#	Program:	/corina/corina34_cracker 3.40 0067  02.08.2006

@<TRIPOS>MOLECULE
ASD01910053
  45   48    0    0    0
SMALL
NO_CHARGES


@<TRIPOS>ATOM
   1 C1             0.3084     1.3956     0.8950 C.ar    
   2 C2             0.3236     0.0148     0.9144 C.ar    
   3 C3             1.1982    -0.6806     0.0994 C.ar    
   4 C4             2.0603     0.0036    -0.7374 C.ar    
   5 C5             2.0503     1.3854    -0.7618 C.ar    
   6 C6             1.1727     2.0864     0.0559 C.ar    
   7 N7             1.1593     3.4872     0.0336 N.pl3   
   8 C8             0.0539     4.2758    -0.0720 C.2     
   9 C9             0.4675     5.5703    -0.0557 C.2     
  10 C10            1.8700     5.5727     0.0636 C.2     
  11 N11            2.2799     4.3228     0.1221 N.2     
  12 N12           -1.2638     3.8347    -0.1782 N.am    
  13 C13           -2.2764     4.7237    -0.1493 C.2     
  14 C14           -3.6740     4.2559    -0.2619 C.ar    
  15 C15           -4.7249     5.1739    -0.2324 C.ar    
  16 C16           -6.0272     4.7305    -0.3379 C.ar    
  17 C17           -6.2924     3.3794    -0.4727 C.ar    
  18 C18           -5.2551     2.4640    -0.5027 C.ar    
  19 C19           -3.9483     2.8944    -0.4040 C.ar    
  20 C20            2.7364     6.7761     0.1198 C.ar    
  21 C21            4.1178     6.6381     0.2394 C.ar    
  22 C22            4.9189     7.7608     0.2913 C.ar    
  23 C23            4.3528     9.0212     0.2252 C.ar    
  24 C24            2.9820     9.1639     0.1069 C.ar    
  25 C25            2.1720     8.0480     0.0475 C.ar    
  26 O26           -2.0403     5.9103    -0.0307 O.2     
  27 Br27           3.2300     2.3208    -1.9060 Br      
  28 N28           -7.1431     5.7025    -0.3063 N.pl3   
  29 O29           -6.9112     6.8923    -0.1872 O.2     
  30 O30           -8.2932     5.3125    -0.3993 O.2     
  31 H31           -0.3781     1.9376     1.5285 H       
  32 H32           -0.3483    -0.5228     1.5672 H       
  33 H33            1.2081    -1.7604     0.1170 H       
  34 H34            2.7424    -0.5423    -1.3724 H       
  35 H35           -0.1669     6.4418    -0.1225 H       
  36 H36           -1.4522     2.8879    -0.2729 H       
  37 H37           -4.5193     6.2288    -0.1268 H       
  38 H38           -7.3136     3.0376    -0.5546 H       
  39 H39           -5.4689     1.4106    -0.6079 H       
  40 H40           -3.1396     2.1789    -0.4276 H       
  41 H41            4.5608     5.6546     0.2918 H       
  42 H42            5.9897     7.6551     0.3840 H       
  43 H43            4.9833     9.8970     0.2665 H       
  44 H44            2.5452    10.1504     0.0565 H       
  45 H45            1.1019     8.1606    -0.0453 H       
@<TRIPOS>BOND
   1    1    2 ar
   2    1    6 ar
   3    1   31 1
   4    2    3 ar
   5    2   32 1
   6    3    4 ar
   7    3   33 1
   8    4    5 ar
   9    4   34 1
  10    5    6 ar
  11    5   27 1
  12    6    7 1
  13    7    8 1
  14    7   11 1
  15    8    9 2
  16    8   12 1
  17    9   10 1
  18    9   35 1
  19   10   11 2
  20   10   20 1
  21   12   13 am
  22   12   36 1
  23   13   14 1
  24   13   26 2
  25   14   15 ar
  26   14   19 ar
  27   15   16 ar
  28   15   37 1
  29   16   17 ar
  30   16   28 1
  31   17   18 ar
  32   17   38 1
  33   18   19 ar
  34   18   39 1
  35   19   40 1
  36   20   21 ar
  37   20   25 ar
  38   21   22 ar
  39   21   41 1
  40   22   23 ar
  41   22   42 1
  42   23   24 ar
  43   23   43 1
  44   24   25 ar
  45   24   44 1
  46   25   45 1
  47   28   29 2
  48   28   30 2

#	End of record

