#	Name: ASD03320026
#	Creating user name:	WinNT
#	Creation time:	15. 06. 2019 20:35

#	Modifying user name:	WinNT
#	Modification time:	15. 06. 2019 20:35

#	Program:	/corina/corina34_cracker 3.40 0067  02.08.2006

@<TRIPOS>MOLECULE
ASD03320026
  60   64    0    0    0
SMALL
NO_CHARGES


@<TRIPOS>ATOM
   1 C1            -0.0865     0.3409     0.8183 C.ar    
   2 C2            -0.0291    -1.0407     0.6371 C.ar    
   3 C3             1.0707     1.0875     0.7960 C.ar    
   4 C4             2.3018     0.4606     0.5919 C.ar    
   5 C5             2.3582    -0.9229     0.4105 C.ar    
   6 C6             1.1999    -1.6678     0.4332 C.ar    
   7 C7             3.5443     1.2611     0.5674 C.2     
   8 N8             3.5732     2.4408    -0.0838 N.am    
   9 O9             4.5400     0.8553     1.1344 O.2     
  10 C10           -1.2758    -1.8439     0.6618 C.ar    
  11 C11           -1.2313    -3.2239     0.4821 C.ar    
  12 C12           -2.4328    -3.9322     0.5142 C.ar    
  13 N13           -3.5679    -3.2683     0.7137 N.ar    
  14 C14           -3.5677    -1.9607     0.8797 C.ar    
  15 N15           -2.4563    -1.2559     0.8619 N.ar    
  16 N16           -2.4434    -5.3079     0.3402 N.pl3   
  17 C17           -3.6360    -6.0222     0.4898 C.ar    
  18 C18           -3.8526    -7.1777    -0.2501 C.ar    
  19 C19           -5.0315    -7.8811    -0.1003 C.ar    
  20 C20           -5.9967    -7.4358     0.7856 C.ar    
  21 C21           -5.7837    -6.2852     1.5240 C.ar    
  22 C22           -4.6041    -5.5810     1.3829 C.ar    
  23 C23            4.7637     3.3003    -0.0219 C.3     
  24 C24            5.2277     3.5987    -1.4530 C.3     
  25 N25            4.0695     4.0483    -2.2380 N.am    
  26 C26            2.8790     3.1887    -2.2999 C.3     
  27 C27            2.4172     2.8878    -0.8734 C.3     
  28 C28            4.0984     5.2280    -2.8892 C.2     
  29 C29            5.3413     6.0252    -2.9182 C.ar    
  30 O30            3.1013     5.6358    -3.4527 O.2     
  31 C31            5.3168     7.3778    -2.5651 C.ar    
  32 C32            6.4857     8.1168    -2.5946 C.ar    
  33 C33            7.6739     7.5203    -2.9719 C.ar    
  34 C34            7.7038     6.1812    -3.3225 C.ar    
  35 C35            6.5481     5.4303    -3.2929 C.ar    
  36 F36            4.1553     7.9612    -2.1967 F       
  37 Br37          -7.6101    -8.4012     0.9870 Br      
  38 H38           -1.0391     0.8261     0.9717 H       
  39 H39            1.0260     2.1575     0.9361 H       
  40 H40            3.3098    -1.4086     0.2522 H       
  41 H41            1.2434    -2.7377     0.2929 H       
  42 H42           -0.2920    -3.7323     0.3219 H       
  43 H43           -4.5074    -1.4529     1.0395 H       
  44 H44           -1.6235    -5.7746     0.1147 H       
  45 H45           -3.0999    -7.5253    -0.9422 H       
  46 H46           -5.2005    -8.7796    -0.6753 H       
  47 H47           -6.5389    -5.9398     2.2144 H       
  48 H48           -4.4384    -4.6830     1.9595 H       
  49 H49            4.5154     4.2332     0.4841 H       
  50 H50            5.5577     2.7871     0.5205 H       
  51 H51            5.9848     4.3827    -1.4361 H       
  52 H52            5.6432     2.6949    -1.8988 H       
  53 H53            2.0850     3.7020    -2.8424 H       
  54 H54            3.1273     2.2558    -2.8060 H       
  55 H55            1.6601     2.1038    -0.8917 H       
  56 H56            2.0018     3.7904    -0.4253 H       
  57 H57            6.4698     9.1619    -2.3227 H       
  58 H58            8.5838     8.1018    -2.9936 H       
  59 H59            8.6363     5.7224    -3.6162 H       
  60 H60            6.5742     4.3860    -3.5670 H       
@<TRIPOS>BOND
   1    1    2 ar
   2    1    3 ar
   3    1   38 1
   4    2   10 1
   5    2    6 ar
   6    3    4 ar
   7    3   39 1
   8    4    5 ar
   9    4    7 1
  10    5    6 ar
  11    5   40 1
  12    6   41 1
  13    7    8 am
  14    7    9 2
  15    8   23 1
  16    8   27 1
  17   10   11 ar
  18   10   15 ar
  19   11   12 ar
  20   11   42 1
  21   12   13 ar
  22   12   16 1
  23   13   14 ar
  24   14   15 ar
  25   14   43 1
  26   16   17 1
  27   16   44 1
  28   17   18 ar
  29   17   22 ar
  30   18   19 ar
  31   18   45 1
  32   19   20 ar
  33   19   46 1
  34   20   21 ar
  35   20   37 1
  36   21   22 ar
  37   21   47 1
  38   22   48 1
  39   23   24 1
  40   23   49 1
  41   23   50 1
  42   24   25 1
  43   24   51 1
  44   24   52 1
  45   25   26 1
  46   25   28 am
  47   26   27 1
  48   26   53 1
  49   26   54 1
  50   27   55 1
  51   27   56 1
  52   28   29 1
  53   28   30 2
  54   29   31 ar
  55   29   35 ar
  56   31   32 ar
  57   31   36 1
  58   32   33 ar
  59   32   57 1
  60   33   34 ar
  61   33   58 1
  62   34   35 ar
  63   34   59 1
  64   35   60 1

#	End of record

