#	Name: ASD03082356
#	Creating user name:	WinNT
#	Creation time:	15. 06. 2019 20:27

#	Modifying user name:	WinNT
#	Modification time:	15. 06. 2019 20:27

#	Program:	/corina/corina34_cracker 3.40 0067  02.08.2006

@<TRIPOS>MOLECULE
ASD03082356
  42   44    0    0    0
SMALL
NO_CHARGES


@<TRIPOS>ATOM
   1 C1            -3.4950    -0.5273    -0.0396 C.ar    
   2 C2            -2.3307    -0.0178     0.5200 C.ar    
   3 C3            -2.3615     1.1919     1.2022 C.ar    
   4 C4            -3.5493     1.8863     1.3232 C.ar    
   5 C5            -4.7099     1.3780     0.7656 C.ar    
   6 C6            -4.6826     0.1710     0.0836 C.ar    
   7 F7            -5.8163    -0.3233    -0.4603 F       
   8 F8            -5.8706     2.0588     0.8861 F       
   9 N9            -1.1288    -0.7219     0.3973 N.pl3   
  10 C10           -1.1433    -2.1161     0.2850 C.2     
  11 C11           -0.0267    -2.9352     0.0449 C.2     
  12 N12           -2.2011    -2.8858     0.3913 N.2     
  13 N13           -1.7946    -4.2150     0.2168 N.pl3   
  14 C14           -0.4525    -4.2176     0.0054 C.2     
  15 C15           -2.6230    -5.3405     0.2577 C.ar    
  16 C16           -2.2258    -6.4963     0.9269 C.ar    
  17 C17           -3.8700    -5.3333    -0.3649 C.ar    
  18 C18           -4.6576    -6.4643    -0.3015 C.ar    
  19 N19           -4.2435    -7.5420     0.3377 N.ar    
  20 C20           -3.0725    -7.5859     0.9440 C.ar    
  21 C21           -6.0081    -6.4689    -0.9703 C.3     
  22 H22           -2.7706    -8.4877     1.4559 H       
  23 C23            0.4073    -5.4324    -0.2312 C.3     
  24 C24            1.0518    -5.8519     1.0648 C.2     
  25 O25            1.8665    -6.9183     1.0950 O.3     
  26 O26            0.8351    -5.2284     2.0768 O.2     
  27 C27            2.4521    -7.2644     2.3778 C.3     
  28 H28           -3.4723    -1.4654    -0.5742 H       
  29 H29           -1.4568     1.5892     1.6383 H       
  30 H30           -3.5727     2.8268     1.8536 H       
  31 H31           -0.2850    -0.2435     0.3902 H       
  32 H32            0.9915    -2.5995    -0.0854 H       
  33 H33           -1.2684    -6.5390     1.4249 H       
  34 H34           -4.2151    -4.4545    -0.8893 H       
  35 H35           -5.9036    -6.8180    -1.9976 H       
  36 H36           -6.6801    -7.1334    -0.4273 H       
  37 H37           -6.4172    -5.4586    -0.9697 H       
  38 H38           -0.2105    -6.2466    -0.6100 H       
  39 H39            1.1809    -5.1935    -0.9610 H       
  40 H40            3.0875    -8.1424     2.2621 H       
  41 H41            3.0499    -6.4287     2.7416 H       
  42 H42            1.6585    -7.4818     3.0926 H       
@<TRIPOS>BOND
   1    1    2 ar
   2    1    6 ar
   3    1   28 1
   4    2    3 ar
   5    2    9 1
   6    3    4 ar
   7    3   29 1
   8    4    5 ar
   9    4   30 1
  10    5    6 ar
  11    5    8 1
  12    6    7 1
  13    9   10 1
  14    9   31 1
  15   10   11 1
  16   10   12 2
  17   11   14 2
  18   11   32 1
  19   12   13 1
  20   13   14 1
  21   13   15 1
  22   14   23 1
  23   15   16 ar
  24   15   17 ar
  25   16   20 ar
  26   16   33 1
  27   17   18 ar
  28   17   34 1
  29   18   19 ar
  30   18   21 1
  31   19   20 ar
  32   20   22 1
  33   21   35 1
  34   21   36 1
  35   21   37 1
  36   23   24 1
  37   23   38 1
  38   23   39 1
  39   24   25 1
  40   24   26 2
  41   25   27 1
  42   27   40 1
  43   27   41 1
  44   27   42 1

#	End of record

