#	Name: ASD00170277
#	Creating user name:	WinNT
#	Creation time:	15. 06. 2019 18:31

#	Modifying user name:	WinNT
#	Modification time:	15. 06. 2019 18:31

#	Program:	/corina/corina34_cracker 3.40 0067  02.08.2006

@<TRIPOS>MOLECULE
ASD00170277
  48   52    0    0    0
SMALL
NO_CHARGES


@<TRIPOS>ATOM
   1 C1            -0.1415     1.2890    -0.0894 C.2     
   2 C2            -0.0414    -0.0764    -0.0026 C.2     
   3 C3            -1.3257    -0.7356     0.1325 C.2     
   4 C4            -2.3473     0.1296     0.1441 C.2     
   5 S5            -1.7699     1.7796    -0.0020 S.3     
   6 C6             1.2338    -0.7955    -0.0427 C.2     
   7 C7             1.7719    -1.2672    -1.3277 C.2     
   8 O8             1.1687    -1.1149    -2.5249 O.3     
   9 C9             1.9134    -1.6545    -3.5097 C.ar    
  10 C10            3.0731    -2.1917    -2.9205 C.ar    
  11 C11            2.9540    -1.9168    -1.4890 C.2     
  12 O12            1.8491    -1.0032     0.9886 O.2     
  13 N13            0.9313     2.1481    -0.2235 N.pl3   
  14 C14           -1.5238    -2.2388     0.2511 C.3     
  15 C15           -2.9390    -2.4941     0.7795 C.3     
  16 N16           -3.9030    -1.7238    -0.0194 N.3     
  17 C17           -3.7995    -0.2865     0.2728 C.3     
  18 C18           -5.2728    -2.2080     0.1979 C.3     
  19 C19           -6.2501    -1.2516    -0.4355 C.ar    
  20 C20           -6.6416    -1.4325    -1.7488 C.ar    
  21 C21           -7.5380    -0.5552    -2.3299 C.ar    
  22 C22           -8.0432     0.5028    -1.5975 C.ar    
  23 C23           -7.6524     0.6831    -0.2839 C.ar    
  24 C24           -6.7593    -0.1967     0.2985 C.ar    
  25 C25            1.7416    -1.7595    -4.8850 C.ar    
  26 C26            2.7022    -2.3842    -5.6508 C.ar    
  27 C27            3.8444    -2.9124    -5.0644 C.ar    
  28 C28            4.0354    -2.8201    -3.7146 C.ar    
  29 H29            3.6596    -2.1826    -0.7158 H       
  30 H30            1.8369     1.8035    -0.1799 H       
  31 H31            0.7792     3.0961    -0.3612 H       
  32 H32           -1.4073    -2.7036    -0.7279 H       
  33 H33           -0.7920    -2.6527     0.9449 H       
  34 H34           -3.1698    -3.5566     0.7028 H       
  35 H35           -2.9997    -2.1826     1.8223 H       
  36 H36           -4.1468    -0.0934     1.2878 H       
  37 H37           -4.4058     0.2759    -0.4374 H       
  38 H38           -5.3854    -3.1941    -0.2527 H       
  39 H39           -5.4697    -2.2729     1.2680 H       
  40 H40           -6.2469    -2.2590    -2.3211 H       
  41 H41           -7.8434    -0.6961    -3.3562 H       
  42 H42           -8.7431     1.1886    -2.0517 H       
  43 H43           -8.0469     1.5098     0.2882 H       
  44 H44           -6.4539    -0.0558     1.3248 H       
  45 H45            0.8571    -1.3528    -5.3525 H       
  46 H46            2.5647    -2.4641    -6.7190 H       
  47 H47            4.5870    -3.3990    -5.6792 H       
  48 H48            4.9257    -3.2327    -3.2634 H       
@<TRIPOS>BOND
   1    1    2 2
   2    1   13 1
   3    1    5 1
   4    2    3 1
   5    2    6 1
   6    3    4 2
   7    3   14 1
   8    4    5 1
   9    4   17 1
  10    6    7 1
  11    6   12 2
  12    7    8 1
  13    7   11 2
  14    8    9 1
  15    9   10 ar
  16    9   25 ar
  17   10   11 1
  18   10   28 ar
  19   11   29 1
  20   13   30 1
  21   13   31 1
  22   14   15 1
  23   14   32 1
  24   14   33 1
  25   15   16 1
  26   15   34 1
  27   15   35 1
  28   16   17 1
  29   16   18 1
  30   17   36 1
  31   17   37 1
  32   18   19 1
  33   18   38 1
  34   18   39 1
  35   19   20 ar
  36   19   24 ar
  37   20   21 ar
  38   20   40 1
  39   21   22 ar
  40   21   41 1
  41   22   23 ar
  42   22   42 1
  43   23   24 ar
  44   23   43 1
  45   24   44 1
  46   25   26 ar
  47   25   45 1
  48   26   27 ar
  49   26   46 1
  50   27   28 ar
  51   27   47 1
  52   28   48 1

#	End of record

