#	Name: ASD05430223
#	Creating user name:	WinNT
#	Creation time:	15. 06. 2019 21:00

#	Modifying user name:	WinNT
#	Modification time:	15. 06. 2019 21:00

#	Program:	/corina/corina34_cracker 3.40 0067  02.08.2006

@<TRIPOS>MOLECULE
ASD05430223
  64   70    0    0    0
SMALL
NO_CHARGES


@<TRIPOS>ATOM
   1 C1            -0.1706     1.2084     0.9650 C.ar    
   2 C2            -0.0147    -0.0173     0.3184 C.ar    
   3 C3            -1.0644    -0.5593    -0.4122 C.ar    
   4 C4            -2.2646     0.1115    -0.5015 C.ar    
   5 C5            -2.4282     1.3412     0.1443 C.ar    
   6 C6            -1.3734     1.8843     0.8841 C.ar    
   7 C7            -4.9279    -0.1411     0.1143 C.3     
   8 C8            -4.8620     1.3704    -0.0439 C.2     
   9 C9            -3.7098     2.0594     0.0500 C.2     
  10 C10           -6.1098    -0.4736     1.0333 C.3     
  11 C11           -7.4775     0.0659     0.6096 C.3     
  12 N12           -7.3579     1.4263     0.1023 N.pl3   
  13 C13           -6.1630     2.0248    -0.3095 C.2     
  14 N14            1.2040    -0.7036     0.4056 N.pl3   
  15 C15            2.4391    -0.1889     0.1720 C.2     
  16 C16            1.3753    -2.0199     0.7486 C.2     
  17 C17            2.6990    -2.2645     0.7075 C.2     
  18 N18            3.3235    -1.1316     0.3535 N.2     
  19 C19            3.3639    -3.5825     1.0108 C.3     
  20 C20           -8.3958     2.4403    -0.0803 C.3     
  21 O21           -7.7939     3.3850    -0.9838 O.3     
  22 N22           -6.3949     3.1411    -0.9144 N.2     
  23 O23            0.8587     1.7357     1.6797 O.3     
  24 C24            0.6290     2.9944     2.3159 C.3     
  25 C25           -6.0809    -1.8330     1.7382 C.3     
  26 C26           -5.8217    -0.5534     2.5354 C.3     
  27 C27           -9.6209     1.8404    -0.7107 C.ar    
  28 C28          -10.7583     1.5714     0.0377 C.ar    
  29 N29          -10.7968     1.8584     1.4064 N.pl3   
  30 C30           -9.5408     2.1490     2.1109 C.3     
  31 C31           -8.7277     3.1198     1.2433 C.3     
  32 C32           -9.6104     1.5524    -2.0649 C.ar    
  33 C33          -10.7221     0.9995    -2.6698 C.ar    
  34 C34          -11.8571     0.7285    -1.9239 C.ar    
  35 C35          -11.8761     1.0142    -0.5710 C.ar    
  36 F36          -12.9436     0.1871    -2.5169 F       
  37 H37           -0.9393    -1.5086    -0.9117 H       
  38 H38           -3.0789    -0.3121    -1.0706 H       
  39 H39           -1.4955     2.8336     1.3844 H       
  40 H40           -5.0768    -0.6068    -0.8598 H       
  41 H41           -4.0019    -0.5052     0.5593 H       
  42 H42           -3.7253     3.1393     0.0561 H       
  43 H43           -7.8899    -0.5736    -0.1708 H       
  44 H44           -8.1478     0.0605     1.4691 H       
  45 H45            2.6535     0.8298    -0.1158 H       
  46 H46            0.5980    -2.7251     1.0032 H       
  47 H47            3.4439    -4.1683     0.0951 H       
  48 H48            4.3599    -3.4024     1.4152 H       
  49 H49            2.7686    -4.1301     1.7416 H       
  50 H50            1.5280     3.3006     2.8508 H       
  51 H51            0.3818     3.7425     1.5627 H       
  52 H52           -0.1981     2.9002     3.0196 H       
  53 H53           -7.0335    -2.3391     1.8946 H       
  54 H54           -5.2293    -2.4842     1.5410 H       
  55 H55           -4.7996    -0.3627     2.8626 H       
  56 H56           -6.6038    -0.2176     3.2163 H       
  57 H57          -11.6413     1.8656     1.8837 H       
  58 H58           -9.7567     2.6087     3.0753 H       
  59 H59           -8.9789     1.2268     2.2586 H       
  60 H60           -7.8046     3.3845     1.7590 H       
  61 H61           -9.3135     4.0195     1.0551 H       
  62 H62           -8.7280     1.7615    -2.6515 H       
  63 H63          -10.7064     0.7785    -3.7269 H       
  64 H64          -12.7598     0.8031     0.0129 H       
@<TRIPOS>BOND
   1    1    2 ar
   2    1   23 1
   3    1    6 ar
   4    2    3 ar
   5    2   14 1
   6    3    4 ar
   7    3   37 1
   8    4    5 ar
   9    4   38 1
  10    5    6 ar
  11    5    9 1
  12    6   39 1
  13    7    8 1
  14    7   10 1
  15    7   40 1
  16    7   41 1
  17    8    9 2
  18    8   13 1
  19    9   42 1
  20   10   11 1
  21   10   25 1
  22   10   26 1
  23   11   12 1
  24   11   43 1
  25   11   44 1
  26   12   13 1
  27   12   20 1
  28   13   22 2
  29   14   15 1
  30   14   16 1
  31   15   18 2
  32   15   45 1
  33   16   17 2
  34   16   46 1
  35   17   18 1
  36   17   19 1
  37   19   47 1
  38   19   48 1
  39   19   49 1
  40   20   21 1
  41   20   27 1
  42   20   31 1
  43   21   22 1
  44   23   24 1
  45   24   50 1
  46   24   51 1
  47   24   52 1
  48   25   26 1
  49   25   53 1
  50   25   54 1
  51   26   55 1
  52   26   56 1
  53   27   28 ar
  54   27   32 ar
  55   28   29 1
  56   28   35 ar
  57   29   30 1
  58   29   57 1
  59   30   31 1
  60   30   58 1
  61   30   59 1
  62   31   60 1
  63   31   61 1
  64   32   33 ar
  65   32   62 1
  66   33   34 ar
  67   33   63 1
  68   34   35 ar
  69   34   36 1
  70   35   64 1

#	End of record

