#	Name: ASD08170014
#	Creating user name:	WinNT
#	Creation time:	15. 06. 2019 21:17

#	Modifying user name:	WinNT
#	Modification time:	15. 06. 2019 21:17

#	Program:	/corina/corina34_cracker 3.40 0067  02.08.2006

@<TRIPOS>MOLECULE
ASD08170014
  57   61    0    0    0
SMALL
NO_CHARGES


@<TRIPOS>ATOM
   1 C1            -0.0168     1.3867     0.0097 C.ar    
   2 C2             0.0021    -0.0041     0.0020 C.ar    
   3 N3             1.1307    -0.6699     0.0331 N.ar    
   4 C4             2.3069    -0.0410     0.0915 C.ar    
   5 C5             2.3660     1.3723    -0.0213 C.ar    
   6 C6             1.1622     2.0844     0.0022 C.ar    
   7 C7             3.4920    -0.7707     0.3182 C.ar    
   8 C8             4.6972    -0.1476     0.3421 C.ar    
   9 C9             4.8109     1.2208     0.1062 C.ar    
  10 C10            3.6733     2.0098    -0.1427 C.ar    
  11 N11            6.0537     1.8424     0.1289 N.pl3   
  12 C12            6.0991     3.2450     0.5693 C.3     
  13 C13            5.0097     4.0064    -0.1502 C.2     
  14 C14            3.8603     3.3629    -0.5083 C.2     
  15 C15            5.2017     5.3663    -0.4288 C.2     
  16 C16            4.1786     6.1720    -1.1821 C.3     
  17 C17            2.7910     5.5647    -0.9564 C.3     
  18 C18            2.8550     4.0905    -1.3596 C.3     
  19 C19            2.3914     5.7007     0.5124 C.3     
  20 C20            1.7671     6.2906    -1.8351 C.3     
  21 O21            6.2235     5.9137    -0.0546 O.2     
  22 C22            5.8809     3.3182     2.0586 C.ar    
  23 C23            6.6182     4.2053     2.8209 C.ar    
  24 C24            6.4206     4.2748     4.1869 C.ar    
  25 C25            5.4792     3.4521     4.7936 C.ar    
  26 C26            4.7403     2.5626     4.0241 C.ar    
  27 C27            4.9396     2.5019     2.6588 C.ar    
  28 N28            5.2768     3.5192     6.1745 N.3     
  29 C29            3.8894     3.8883     6.4859 C.3     
  30 C30            5.6425     2.2525     6.8223 C.3     
  31 Br31           7.4301     5.4874     5.2291 Br      
  32 H32           -0.9583     1.9162     0.0170 H       
  33 H33           -0.9308    -0.5460    -0.0305 H       
  34 H34            1.1414     3.1610     0.0689 H       
  35 H35            3.4386    -1.8371     0.4758 H       
  36 H36            5.5862    -0.7243     0.5507 H       
  37 H37            6.8568     1.3718    -0.1320 H       
  38 H38            7.0694     3.6705     0.3175 H       
  39 H39            4.1879     7.2014    -0.8202 H       
  40 H40            4.4148     6.1597    -2.2466 H       
  41 H41            3.1988     4.0425    -2.4058 H       
  42 H42            1.8775     3.6399    -1.3169 H       
  43 H43            2.3695     6.7553     0.7868 H       
  44 H44            1.4032     5.2657     0.6619 H       
  45 H45            3.1166     5.1779     1.1361 H       
  46 H46            2.0455     6.1814    -2.8832 H       
  47 H47            0.7794     5.8586    -1.6746 H       
  48 H48            1.7481     7.3484    -1.5725 H       
  49 H49            7.3496     4.8442     2.3485 H       
  50 H50            4.0081     1.9216     4.4925 H       
  51 H51            4.3650     1.8106     2.0602 H       
  52 H52            3.2127     3.1423     6.0693 H       
  53 H53            3.7594     3.9333     7.5671 H       
  54 H54            3.6668     4.8633     6.0522 H       
  55 H55            6.6944     2.0382     6.6332 H       
  56 H56            5.4753     2.3322     7.8964 H       
  57 H57            5.0293     1.4472     6.4179 H       
@<TRIPOS>BOND
   1    1    2 ar
   2    1    6 ar
   3    1   32 1
   4    2    3 ar
   5    2   33 1
   6    3    4 ar
   7    4    5 ar
   8    4    7 ar
   9    5    6 ar
  10    5   10 ar
  11    6   34 1
  12    7    8 ar
  13    7   35 1
  14    8    9 ar
  15    8   36 1
  16    9   10 ar
  17    9   11 1
  18   10   14 1
  19   11   12 1
  20   11   37 1
  21   12   13 1
  22   12   22 1
  23   12   38 1
  24   13   14 2
  25   13   15 1
  26   14   18 1
  27   15   16 1
  28   15   21 2
  29   16   17 1
  30   16   39 1
  31   16   40 1
  32   17   18 1
  33   17   19 1
  34   17   20 1
  35   18   41 1
  36   18   42 1
  37   19   43 1
  38   19   44 1
  39   19   45 1
  40   20   46 1
  41   20   47 1
  42   20   48 1
  43   22   23 ar
  44   22   27 ar
  45   23   24 ar
  46   23   49 1
  47   24   25 ar
  48   24   31 1
  49   25   26 ar
  50   25   28 1
  51   26   27 ar
  52   26   50 1
  53   27   51 1
  54   28   29 1
  55   28   30 1
  56   29   52 1
  57   29   53 1
  58   29   54 1
  59   30   55 1
  60   30   56 1
  61   30   57 1

#	End of record

