#	Name: ASD00170913
#	Creating user name:	WinNT
#	Creation time:	15. 06. 2019 18:32

#	Modifying user name:	WinNT
#	Modification time:	15. 06. 2019 18:32

#	Program:	/corina/corina34_cracker 3.40 0067  02.08.2006

@<TRIPOS>MOLECULE
ASD00170913
  62   66    0    0    0
SMALL
NO_CHARGES


@<TRIPOS>ATOM
   1 C1             0.6910     0.3979     1.0994 C.2     
   2 N2             0.0340    -0.0026    -0.0041 N.am    
   3 C3             0.6296     0.4617    -1.1173 C.2     
   4 C4             1.8105     1.2576    -0.7226 C.ar    
   5 C5             2.7807     1.9609    -1.4187 C.ar    
   6 C6             3.7830     2.6198    -0.7240 C.ar    
   7 C7             3.8215     2.5796     0.6572 C.ar    
   8 C8             2.8579     1.8803     1.3671 C.ar    
   9 C9             1.8495     1.2171     0.6863 C.ar    
  10 O10            0.3809     0.1347     2.2436 O.2     
  11 O11            0.2591     0.2601    -2.2561 O.2     
  12 C12           -1.1071    -0.7904     0.0048 C.2     
  13 C13           -1.1146    -2.1628    -0.0983 C.2     
  14 C14           -2.3940    -2.7213    -0.0637 C.2     
  15 C15           -3.3764    -1.8140     0.0636 C.2     
  16 S16           -2.6991    -0.1959     0.1525 S.3     
  17 C17           -2.6489    -4.2034    -0.1608 C.3     
  18 O18           -2.6489    -4.7735     1.1496 O.3     
  19 C19           -4.8116    -2.1303     0.1250 C.2     
  20 C20           -5.7033    -1.1518     0.2523 C.2     
  21 C21           -7.1737    -1.4759     0.3152 C.3     
  22 C22           -7.7758    -0.8692     1.5841 C.3     
  23 C23           -9.2897    -1.0905     1.5865 C.3     
  24 C24           -9.8918    -0.4838     2.8555 C.3     
  25 C25           -9.2762    -1.1565     4.0841 C.3     
  26 C26           -7.7623    -0.9352     4.0817 C.3     
  27 C27           -7.1601    -1.5419     2.8127 C.3     
  28 C28            0.1062    -2.9634    -0.2323 C.2     
  29 C29            0.5890    -3.3564    -1.5731 C.ar    
  30 C30            1.8122    -4.0152    -1.7125 C.ar    
  31 C31            2.2570    -4.3797    -2.9657 C.ar    
  32 C32            1.4931    -4.0932    -4.0852 C.ar    
  33 C33            0.2788    -3.4399    -3.9534 C.ar    
  34 C34           -0.1792    -3.0755    -2.7048 C.ar    
  35 O35            0.7224    -3.3045     0.7606 O.2     
  36 Cl36           2.0603    -4.5542    -5.6599 Cl      
  37 H37            2.7561     1.9951    -2.4978 H       
  38 H38            4.5395     3.1681    -1.2658 H       
  39 H39            4.6080     3.0965     1.1870 H       
  40 H40            2.8930     1.8524     2.4461 H       
  41 H41           -3.6166    -4.3756    -0.6319 H       
  42 H42           -1.8655    -4.6684    -0.7593 H       
  43 H43           -2.8073    -5.7274     1.1635 H       
  44 H44           -5.1412    -3.1571     0.0666 H       
  45 H45           -5.3736    -0.1250     0.3106 H       
  46 H46           -7.6749    -1.0608    -0.5592 H       
  47 H47           -7.3070    -2.5576     0.3310 H       
  48 H48           -7.5648     0.1998     1.6112 H       
  49 H49           -9.7283    -0.6113     0.7112 H       
  50 H50           -9.5007    -2.1595     1.5594 H       
  51 H51           -9.6808     0.5852     2.8826 H       
  52 H52          -10.9704    -0.6415     2.8571 H       
  53 H53           -9.7051    -0.7242     4.9881 H       
  54 H54           -9.4872    -2.2255     4.0570 H       
  55 H55           -7.5513     0.1339     4.1088 H       
  56 H56           -7.3237    -1.4144     4.9570 H       
  57 H57           -7.3711    -2.6109     2.7856 H       
  58 H58           -6.0816    -1.3842     2.8111 H       
  59 H59            2.4090    -4.2385    -0.8404 H       
  60 H60            3.2029    -4.8893    -3.0748 H       
  61 H61           -0.3124    -3.2192    -4.8298 H       
  62 H62           -1.1282    -2.5701    -2.6028 H       
@<TRIPOS>BOND
   1    1    2 am
   2    1    9 1
   3    1   10 2
   4    2    3 am
   5    2   12 1
   6    3    4 1
   7    3   11 2
   8    4    5 ar
   9    4    9 ar
  10    5    6 ar
  11    5   37 1
  12    6    7 ar
  13    6   38 1
  14    7    8 ar
  15    7   39 1
  16    8    9 ar
  17    8   40 1
  18   12   13 2
  19   12   16 1
  20   13   14 1
  21   13   28 1
  22   14   15 2
  23   14   17 1
  24   15   16 1
  25   15   19 1
  26   17   18 1
  27   17   41 1
  28   17   42 1
  29   18   43 1
  30   19   20 2
  31   19   44 1
  32   20   21 1
  33   20   45 1
  34   21   22 1
  35   21   46 1
  36   21   47 1
  37   22   23 1
  38   22   27 1
  39   22   48 1
  40   23   24 1
  41   23   49 1
  42   23   50 1
  43   24   25 1
  44   24   51 1
  45   24   52 1
  46   25   26 1
  47   25   53 1
  48   25   54 1
  49   26   27 1
  50   26   55 1
  51   26   56 1
  52   27   57 1
  53   27   58 1
  54   28   29 1
  55   28   35 2
  56   29   30 ar
  57   29   34 ar
  58   30   31 ar
  59   30   59 1
  60   31   32 ar
  61   31   60 1
  62   32   33 ar
  63   32   36 1
  64   33   34 ar
  65   33   61 1
  66   34   62 1

#	End of record

