#	Name: ASD01841049
#	Creating user name:	WinNT
#	Creation time:	15. 06. 2019 19:38

#	Modifying user name:	WinNT
#	Modification time:	15. 06. 2019 19:38

#	Program:	/corina/corina34_cracker 3.40 0067  02.08.2006

@<TRIPOS>MOLECULE
ASD01841049
  37   39    0    0    0
SMALL
NO_CHARGES


@<TRIPOS>ATOM
   1 C1            -0.0162     1.3436     0.0094 C.2     
   2 N2             0.0021    -0.0041     0.0020 N.am    
   3 O3             1.0283     1.9657     0.0028 O.2     
   4 N4            -1.1924     2.0015     0.0186 N.am    
   5 S5            -2.6680     4.3713     0.0385 S.3     
   6 C6            -1.2112     3.3872     0.0262 C.2     
   7 N7            -0.1644     4.1365     0.0258 N.2     
   8 C8            -0.3450     5.4729     0.0342 C.ar    
   9 C9            -1.6929     5.8390     0.0425 C.ar    
  10 C10           -2.0593     7.1839     0.0514 C.ar    
  11 C11           -1.0947     8.1666     0.0523 C.ar    
  12 C12            0.2482     7.8209     0.0437 C.ar    
  13 C13            0.6299     6.4981     0.0357 C.ar    
  14 C14           -3.5175     7.5641     0.0597 C.3     
  15 O15            1.9505     6.1755     0.0279 O.3     
  16 C16            2.8829     7.2583     0.0299 C.3     
  17 C17            1.2806    -0.7192    -0.0140 C.3     
  18 C18            1.2004    -2.1376     0.5746 C.3     
  19 C19            2.1392    -2.5772    -0.5613 C.3     
  20 C20            1.5984    -1.3826    -1.3645 C.3     
  21 H21           -0.8313    -0.5005     0.0073 H       
  22 H22           -2.0258     1.5051     0.0198 H       
  23 H23           -1.3842     9.2071     0.0593 H       
  24 H24            1.0008     8.5955     0.0437 H       
  25 H25           -3.8647     7.6501     1.0894 H       
  26 H26           -3.6467     8.5198    -0.4483 H       
  27 H27           -4.0958     6.7974    -0.4559 H       
  28 H28            2.7266     7.8740    -0.8559 H       
  29 H29            2.7347     7.8638     0.9240 H       
  30 H30            3.8987     6.8631     0.0230 H       
  31 H31            2.1025    -0.1260     0.3867 H       
  32 H32            1.6444    -2.2245     1.5663 H       
  33 H33            0.2059    -2.5796     0.5148 H       
  34 H34            3.1968    -2.4924    -0.3112 H       
  35 H35            1.8812    -3.5451    -0.9911 H       
  36 H36            0.7127    -1.6181    -1.9545 H       
  37 H37            2.3637    -0.8599    -1.9383 H       
@<TRIPOS>BOND
   1    1    2 am
   2    1    3 2
   3    1    4 am
   4    2   17 1
   5    2   21 1
   6    4    6 1
   7    4   22 1
   8    5    6 1
   9    5    9 1
  10    6    7 2
  11    7    8 1
  12    8    9 ar
  13    8   13 ar
  14    9   10 ar
  15   10   11 ar
  16   10   14 1
  17   11   12 ar
  18   11   23 1
  19   12   13 ar
  20   12   24 1
  21   13   15 1
  22   14   25 1
  23   14   26 1
  24   14   27 1
  25   15   16 1
  26   16   28 1
  27   16   29 1
  28   16   30 1
  29   17   18 1
  30   17   20 1
  31   17   31 1
  32   18   19 1
  33   18   32 1
  34   18   33 1
  35   19   20 1
  36   19   34 1
  37   19   35 1
  38   20   36 1
  39   20   37 1

#	End of record

