#	Name: ASD01478036
#	Creating user name:	WinNT
#	Creation time:	15. 06. 2019 19:21

#	Modifying user name:	WinNT
#	Modification time:	15. 06. 2019 19:21

#	Program:	/corina/corina34_cracker 3.40 0067  02.08.2006

@<TRIPOS>MOLECULE
ASD01478036
  87   89    0    0    0
SMALL
NO_CHARGES


@<TRIPOS>ATOM
   1 C1            -1.7453     1.8671     0.8435 C.3     
   2 C2            -2.3371    -0.4054     1.2699 C.2     
   3 O3            -1.5612     0.4512     0.5793 O.3     
   4 N4            -2.2166    -1.7331     1.0721 N.am    
   5 O5            -3.1460     0.0185     2.0714 O.2     
   6 C6            -4.4029    -2.8287     1.1072 C.3     
   7 C7            -3.0608    -2.6652     1.8236 C.3     
   8 C8            -2.3633    -4.0239     1.9162 C.3     
   9 C9            -3.1852    -4.9595     2.8050 C.3     
  10 N10           -2.4546    -6.2142     3.0004 N.am    
  11 S11           -3.0633    -7.6299     2.3941 S.o2    
  12 C12           -2.4241    -7.8163     0.7628 C.ar    
  13 C13           -1.2295    -8.4827     0.5616 C.ar    
  14 C14           -0.7262    -8.6302    -0.7164 C.ar    
  15 C15           -1.4205    -8.1088    -1.7985 C.ar    
  16 C16           -2.6189    -7.4405    -1.5940 C.ar    
  17 C17           -3.1208    -7.3007    -0.3145 C.ar    
  18 O18           -2.4947    -8.6760     3.1698 O.2     
  19 O19           -4.4646    -7.4378     2.2565 O.2     
  20 C20           -1.1855    -6.2165     3.7322 C.3     
  21 C21           -1.4426    -5.8703     5.2002 C.3     
  22 C22           -2.3210    -6.9515     5.8328 C.3     
  23 C23           -0.1095    -5.7946     5.9473 C.3     
  24 O24           -2.2464    -4.5894     0.6091 O.3     
  25 C25           -0.4227     2.6035     0.6216 C.3     
  26 O26           -0.1272     3.4071     1.7656 O.3     
  27 O27           -3.7702     3.1715     0.6462 O.3     
  28 C28           -2.8071     2.4288    -0.1041 C.3     
  29 C29           -0.0573     4.8075     1.4899 C.3     
  30 C30           -3.8263     4.5588     0.3080 C.3     
  31 N31           -2.1636     6.0451     1.3197 N.3     
  32 C32           -1.1593     5.5351     2.2627 C.3     
  33 C33           -3.4647     5.3979     1.5351 C.3     
  34 C34           -2.2805     7.5064     1.4145 C.3     
  35 O35           -0.9272    -8.2522    -3.0567 O.3     
  36 C36           -1.6953    -7.6901    -4.1226 C.3     
  37 C37           -5.1444    -1.5169     1.1241 C.ar    
  38 C38           -4.9685    -0.6102     0.0956 C.ar    
  39 C39           -5.6486     0.5932     0.1111 C.ar    
  40 C40           -6.5050     0.8896     1.1549 C.ar    
  41 C41           -6.6816    -0.0174     2.1830 C.ar    
  42 C42           -6.0047    -1.2226     2.1653 C.ar    
  43 H43           -2.0694     2.0050     1.8750 H       
  44 H44           -1.5708    -2.0715     0.4323 H       
  45 H45           -4.2291    -3.1346     0.0756 H       
  46 H46           -4.9963    -3.5881     1.6164 H       
  47 H47           -3.2298    -2.2744     2.8269 H       
  48 H48           -1.3702    -3.8938     2.3460 H       
  49 H49           -3.3572    -4.4849     3.7711 H       
  50 H50           -4.1424    -5.1672     2.3267 H       
  51 H51           -0.6892    -8.8881     1.4043 H       
  52 H52            0.2071    -9.1505    -0.8730 H       
  53 H53           -3.1612    -7.0338    -2.4347 H       
  54 H54           -4.0537    -6.7805    -0.1547 H       
  55 H55           -0.7298    -7.2045     3.6663 H       
  56 H56           -0.5137    -5.4767     3.2967 H       
  57 H57           -1.9495    -4.9075     5.2630 H       
  58 H58           -1.8141    -7.9144     5.7699 H       
  59 H59           -2.5042    -6.7049     6.8786 H       
  60 H60           -3.2707    -7.0055     5.3005 H       
  61 H61            0.5163    -5.0243     5.4966 H       
  62 H62           -0.2927    -5.5480     6.9931 H       
  63 H63            0.3974    -6.7574     5.8845 H       
  64 H64           -3.0935    -4.7332     0.1655 H       
  65 H65            0.3764     1.8778     0.4711 H       
  66 H66           -0.5051     3.2410    -0.2587 H       
  67 H67           -2.3322     3.0836    -0.8347 H       
  68 H68           -3.3039     1.6077    -0.6209 H       
  69 H69            0.9157     5.1903     1.7978 H       
  70 H70           -0.1919     4.9746     0.4213 H       
  71 H71           -3.1189     4.7659    -0.4951 H       
  72 H72           -4.8340     4.8120    -0.0213 H       
  73 H73           -1.6330     4.8426     2.9585 H       
  74 H74           -0.7256     6.3674     2.8170 H       
  75 H75           -4.2280     6.1600     1.6919 H       
  76 H76           -3.4090     4.7535     2.4124 H       
  77 H77           -1.3187     7.9636     1.1819 H       
  78 H78           -3.0305     7.8577     0.7058 H       
  79 H79           -2.5788     7.7822     2.4259 H       
  80 H80           -1.1905    -7.8748    -5.0708 H       
  81 H81           -2.6830    -8.1509    -4.1409 H       
  82 H82           -1.7983    -6.6159    -3.9690 H       
  83 H83           -4.2994    -0.8418    -0.7199 H       
  84 H84           -5.5106     1.3018    -0.6921 H       
  85 H85           -7.0358     1.8301     1.1674 H       
  86 H86           -7.3504     0.2144     2.9987 H       
  87 H87           -6.1455    -1.9329     2.9666 H       
@<TRIPOS>BOND
   1    1    3 1
   2    1   25 1
   3    1   28 1
   4    1   43 1
   5    2    3 1
   6    2    4 am
   7    2    5 2
   8    4    7 1
   9    4   44 1
  10    6    7 1
  11    6   37 1
  12    6   45 1
  13    6   46 1
  14    7    8 1
  15    7   47 1
  16    8    9 1
  17    8   24 1
  18    8   48 1
  19    9   10 1
  20    9   49 1
  21    9   50 1
  22   10   11 am
  23   10   20 1
  24   11   12 1
  25   11   18 2
  26   11   19 2
  27   12   13 ar
  28   12   17 ar
  29   13   14 ar
  30   13   51 1
  31   14   15 ar
  32   14   52 1
  33   15   16 ar
  34   15   35 1
  35   16   17 ar
  36   16   53 1
  37   17   54 1
  38   20   21 1
  39   20   55 1
  40   20   56 1
  41   21   22 1
  42   21   23 1
  43   21   57 1
  44   22   58 1
  45   22   59 1
  46   22   60 1
  47   23   61 1
  48   23   62 1
  49   23   63 1
  50   24   64 1
  51   25   26 1
  52   25   65 1
  53   25   66 1
  54   26   29 1
  55   27   28 1
  56   27   30 1
  57   28   67 1
  58   28   68 1
  59   29   32 1
  60   29   69 1
  61   29   70 1
  62   30   33 1
  63   30   71 1
  64   30   72 1
  65   31   32 1
  66   31   33 1
  67   31   34 1
  68   32   73 1
  69   32   74 1
  70   33   75 1
  71   33   76 1
  72   34   77 1
  73   34   78 1
  74   34   79 1
  75   35   36 1
  76   36   80 1
  77   36   81 1
  78   36   82 1
  79   37   38 ar
  80   37   42 ar
  81   38   39 ar
  82   38   83 1
  83   39   40 ar
  84   39   84 1
  85   40   41 ar
  86   40   85 1
  87   41   42 ar
  88   41   86 1
  89   42   87 1

#	End of record

