#	Name: ASD03430704
#	Creating user name:	WinNT
#	Creation time:	15. 06. 2019 20:41

#	Modifying user name:	WinNT
#	Modification time:	15. 06. 2019 20:41

#	Program:	/corina/corina34_cracker 3.40 0067  02.08.2006

@<TRIPOS>MOLECULE
ASD03430704
  49   54    0    0    0
SMALL
NO_CHARGES


@<TRIPOS>ATOM
   1 C1            -0.0167     1.3783     0.0096 C.ar    
   2 C2             0.0021    -0.0041     0.0020 C.ar    
   3 C3             1.2018    -0.6823    -0.0150 C.ar    
   4 C4             2.4084     0.0130    -0.0152 C.ar    
   5 C5             2.3844     1.4035    -0.0124 C.ar    
   6 C6             1.1774     2.0836     0.0020 C.ar    
   7 O7             3.4705    -0.8408    -0.0042 O.3     
   8 C8             1.5506    -2.1459    -0.0475 C.3     
   9 C9             3.0366    -2.1458    -0.4327 C.3     
  10 C10            0.4299    -3.8639     1.0080 C.ar    
  11 C11            1.3140    -2.8201     1.2713 C.ar    
  12 C12            0.7193    -2.9083    -1.0391 C.2     
  13 N13            0.1025    -3.8887    -0.3498 N.am    
  14 O14            0.6221    -2.6855    -2.2273 O.2     
  15 C15            1.7753    -2.5985     2.5493 C.ar    
  16 C16            1.3627    -3.4162     3.5868 C.ar    
  17 C17            0.4868    -4.4562     3.3365 C.ar    
  18 C18            0.0207    -4.6820     2.0577 C.ar    
  19 C19           -0.8051    -4.8670    -0.9544 C.3     
  20 C20           -2.2367    -4.3289    -0.9119 C.3     
  21 C21           -3.2275    -5.3950    -1.4298 C.3     
  22 C22           -4.2803    -4.5798    -2.2137 C.3     
  23 C23           -3.8010    -3.1176    -2.0766 C.3     
  24 O24           -2.3829    -3.2165    -1.8213 O.3     
  25 C25           -1.3359     2.1078     0.0199 C.3     
  26 O26           -1.1193     3.4715     0.3954 O.3     
  27 C27           -0.0527     4.0905    -0.3336 C.3     
  28 O28            1.1745     3.4438     0.0135 O.3     
  29 H29           -0.9270    -0.5547     0.0098 H       
  30 H30            3.3120     1.9564    -0.0207 H       
  31 H31            3.1572    -2.2592    -1.5100 H       
  32 H32            3.5752    -2.9278     0.1026 H       
  33 H33            2.4595    -1.7855     2.7425 H       
  34 H34            1.7245    -3.2426     4.5895 H       
  35 H35            0.1654    -5.0947     4.1461 H       
  36 H36           -0.6638    -5.4961     1.8703 H       
  37 H37           -0.5133    -5.0419    -1.9900 H       
  38 H38           -0.7523    -5.8034    -0.3990 H       
  39 H39           -2.4985    -4.0287     0.1027 H       
  40 H40           -2.7206    -6.0989    -2.0898 H       
  41 H41           -3.6941    -5.9198    -0.5961 H       
  42 H42           -4.2938    -4.8807    -3.2612 H       
  43 H43           -5.2673    -4.7016    -1.7675 H       
  44 H44           -3.9827    -2.5704    -3.0017 H       
  45 H45           -4.3038    -2.6302    -1.2414 H       
  46 H46           -1.7800     2.0705    -0.9748 H       
  47 H47           -2.0074     1.6353     0.7367 H       
  48 H48           -0.2310     3.9844    -1.4037 H       
  49 H49            0.0037     5.1473    -0.0726 H       
@<TRIPOS>BOND
   1    1    2 ar
   2    1    6 ar
   3    1   25 1
   4    2    3 ar
   5    2   29 1
   6    3    4 ar
   7    3    8 1
   8    4    5 ar
   9    4    7 1
  10    5    6 ar
  11    5   30 1
  12    6   28 1
  13    7    9 1
  14    8    9 1
  15    8   11 1
  16    8   12 1
  17    9   31 1
  18    9   32 1
  19   10   11 ar
  20   10   13 1
  21   10   18 ar
  22   11   15 ar
  23   12   13 am
  24   12   14 2
  25   13   19 1
  26   15   16 ar
  27   15   33 1
  28   16   17 ar
  29   16   34 1
  30   17   18 ar
  31   17   35 1
  32   18   36 1
  33   19   20 1
  34   19   37 1
  35   19   38 1
  36   20   21 1
  37   20   24 1
  38   20   39 1
  39   21   22 1
  40   21   40 1
  41   21   41 1
  42   22   23 1
  43   22   42 1
  44   22   43 1
  45   23   24 1
  46   23   44 1
  47   23   45 1
  48   25   26 1
  49   25   46 1
  50   25   47 1
  51   26   27 1
  52   27   28 1
  53   27   48 1
  54   27   49 1

#	End of record

