#	Name: ASD01912264
#	Creating user name:	WinNT
#	Creation time:	15. 06. 2019 19:59

#	Modifying user name:	WinNT
#	Modification time:	15. 06. 2019 19:59

#	Program:	/corina/corina34_cracker 3.40 0067  02.08.2006

@<TRIPOS>MOLECULE
ASD01912264
  47   49    0    0    0
SMALL
NO_CHARGES


@<TRIPOS>ATOM
   1 N1            -0.0002     1.4797    -0.1144 N.am    
   2 C2             0.0333     0.0179    -0.2511 C.3     
   3 C3             0.8641    -0.3433    -1.4890 C.3     
   4 C4             2.1723     0.4140    -1.4246 C.2     
   5 C5             2.1263     1.9140    -1.2322 C.3     
   6 C6             1.2638     2.2187    -0.0008 C.3     
   7 C7            -1.1772     2.1361    -0.0991 C.2     
   8 O8            -2.2188     1.5182    -0.1986 O.2     
   9 O9            -1.1990     3.4767     0.0267 O.3     
  10 C10            3.3365    -0.2245    -1.5341 C.2     
  11 C11            4.5644     0.5096    -1.4707 C.1     
  12 C12            5.5711     1.1113    -1.4187 C.1     
  13 C13            6.7990     1.8454    -1.3553 C.ar    
  14 C14            8.0178     1.1705    -1.4708 C.ar    
  15 C15            9.1943     1.8943    -1.4075 C.ar    
  16 C16            9.1187     3.2697    -1.2307 C.ar    
  17 C17            7.8795     3.8742    -1.1237 C.ar    
  18 N18            6.7718     3.1650    -1.1924 N.ar    
  19 C19            7.7953     5.3666    -0.9319 C.3     
  20 C20           -2.4107     4.0862    -0.0699 C.ar    
  21 C21           -3.2192     4.2096     1.0534 C.ar    
  22 C22           -4.4508     4.8305     0.9515 C.ar    
  23 C23           -4.8767     5.3274    -0.2667 C.ar    
  24 C24           -4.0734     5.2054    -1.3849 C.ar    
  25 C25           -2.8391     4.5908    -1.2878 C.ar    
  26 N26           -6.1957     5.9907    -0.3736 N.pl3   
  27 O27           -6.9047     6.0985     0.6109 O.2     
  28 O28           -6.5719     6.4288    -1.4460 O.2     
  29 F29           -2.8031     3.7232     2.2431 F       
  30 H30            0.4892    -0.4217     0.6360 H       
  31 H31           -0.9818    -0.3614    -0.3689 H       
  32 H32            1.0608    -1.4154    -1.4988 H       
  33 H33            0.3207    -0.0611    -2.3908 H       
  34 H34            3.1356     2.2951    -1.0768 H       
  35 H35            1.6877     2.3836    -2.1127 H       
  36 H36            1.0589     3.2882     0.0463 H       
  37 H37            1.7904     1.9054     0.9007 H       
  38 H38            3.3541    -1.2956    -1.6708 H       
  39 H39            8.0402     0.0994    -1.6072 H       
  40 H40           10.1511     1.4007    -1.4932 H       
  41 H41           10.0201     3.8621    -1.1770 H       
  42 H42            7.7502     5.8560    -1.9048 H       
  43 H43            6.8991     5.6096    -0.3610 H       
  44 H44            8.6757     5.7137    -0.3911 H       
  45 H45           -5.0804     4.9271     1.8238 H       
  46 H46           -4.4089     5.5941    -2.3349 H       
  47 H47           -2.2107     4.4999    -2.1614 H       
@<TRIPOS>BOND
   1    1    2 1
   2    1    6 1
   3    1    7 am
   4    2    3 1
   5    2   30 1
   6    2   31 1
   7    3    4 1
   8    3   32 1
   9    3   33 1
  10    4    5 1
  11    4   10 2
  12    5    6 1
  13    5   34 1
  14    5   35 1
  15    6   36 1
  16    6   37 1
  17    7    8 2
  18    7    9 1
  19    9   20 1
  20   10   11 1
  21   10   38 1
  22   11   12 3
  23   12   13 1
  24   13   14 ar
  25   13   18 ar
  26   14   15 ar
  27   14   39 1
  28   15   16 ar
  29   15   40 1
  30   16   17 ar
  31   16   41 1
  32   17   18 ar
  33   17   19 1
  34   19   42 1
  35   19   43 1
  36   19   44 1
  37   20   21 ar
  38   20   25 ar
  39   21   22 ar
  40   21   29 1
  41   22   23 ar
  42   22   45 1
  43   23   24 ar
  44   23   26 1
  45   24   25 ar
  46   24   46 1
  47   25   47 1
  48   26   27 2
  49   26   28 2

#	End of record

