#	Name: ASD03331564
#	Creating user name:	WinNT
#	Creation time:	15. 06. 2019 20:39

#	Modifying user name:	WinNT
#	Modification time:	15. 06. 2019 20:39

#	Program:	/corina/corina34_cracker 3.40 0067  02.08.2006

@<TRIPOS>MOLECULE
ASD03331564
  59   61    0    0    0
SMALL
NO_CHARGES


@<TRIPOS>ATOM
   1 C1             0.3557     2.0586    -1.0979 C.ar    
   2 C2             0.2719     0.6660    -1.0980 C.ar    
   3 C3             1.6629     2.7231    -0.9031 C.2     
   4 N4             1.9603     4.0096    -1.2472 N.pl3   
   5 C5             3.2667     4.2218    -0.9257 C.2     
   6 C6             3.7356     3.0747    -0.3661 C.2     
   7 N7             2.7272     2.1750    -0.3653 N.2     
   8 C8             1.0528     4.9997    -1.8321 C.3     
   9 C9             1.8633     6.0120    -2.6453 C.3     
  10 O10            2.3003     7.0772    -1.7995 O.3     
  11 C11            3.1547     6.6808    -0.7303 C.3     
  12 C12            4.0207     5.5000    -1.1814 C.3     
  13 C13            5.0974     2.8540     0.1519 C.2     
  14 O14            5.9203     3.7479     0.0992 O.2     
  15 N15            5.4309     1.6615     0.6841 N.am    
  16 C16            6.7847     1.4420     1.1990 C.3     
  17 C17            7.1045    -0.0301     1.1601 C.2     
  18 C18            6.8693     1.9443     2.6417 C.3     
  19 C19            5.7818     1.2705     3.4809 C.3     
  20 C20            8.2441     1.6042     3.2205 C.3     
  21 C21            6.6664     3.4606     2.6666 C.3     
  22 C22           -0.9513     0.0507    -1.2808 C.ar    
  23 C23           -2.0942     0.8162    -1.4640 C.ar    
  24 C24           -2.0141     2.1993    -1.4648 C.ar    
  25 C25           -0.7964     2.8226    -1.2878 C.ar    
  26 F26           -3.2887     0.2108    -1.6425 F       
  27 F27           -1.0349    -1.2977    -1.2818 F       
  28 N28            8.3687    -0.4394     0.9347 N.am    
  29 O29            6.2243    -0.8466     1.3316 O.2     
  30 C30            8.6621    -1.8678     0.7938 C.3     
  31 C31            9.4495     0.5441     0.8305 C.3     
  32 H32            1.1614     0.0703    -0.9558 H       
  33 H33            0.3383     4.4976    -2.4845 H       
  34 H34            0.5176     5.5175    -1.0361 H       
  35 H35            2.7309     5.5156    -3.0799 H       
  36 H36            1.2412     6.4159    -3.4441 H       
  37 H37            3.7964     7.5158    -0.4491 H       
  38 H38            2.5504     6.3821     0.1263 H       
  39 H39            4.9530     5.4937    -0.6166 H       
  40 H40            4.2364     5.5905    -2.2460 H       
  41 H41            4.7745     0.9485     0.7261 H       
  42 H42            7.5005     1.9858     0.5825 H       
  43 H43            5.9263     0.1902     3.4632 H       
  44 H44            5.8420     1.6283     4.5087 H       
  45 H45            4.8023     1.5128     3.0686 H       
  46 H46            9.0134     2.1503     2.6745 H       
  47 H47            8.2755     1.8869     4.2727 H       
  48 H48            8.4230     0.5331     3.1265 H       
  49 H49            5.6869     3.7029     2.2543 H       
  50 H50            6.7266     3.8185     3.6944 H       
  51 H51            7.4411     3.9407     2.0687 H       
  52 H52           -2.9063     2.7906    -1.6084 H       
  53 H53           -0.7360     3.9009    -1.2884 H       
  54 H54            8.5760    -2.1548    -0.2542 H       
  55 H55            9.6753    -2.0668     1.1430 H       
  56 H56            7.9532    -2.4446     1.3879 H       
  57 H57            9.0352     1.5491     0.9110 H       
  58 H58           10.1673     0.3816     1.6345 H       
  59 H59            9.9500     0.4334    -0.1314 H       
@<TRIPOS>BOND
   1    1    2 ar
   2    1    3 1
   3    1   25 ar
   4    2   22 ar
   5    2   32 1
   6    3    4 1
   7    3    7 2
   8    4    5 1
   9    4    8 1
  10    5    6 2
  11    5   12 1
  12    6    7 1
  13    6   13 1
  14    8    9 1
  15    8   33 1
  16    8   34 1
  17    9   10 1
  18    9   35 1
  19    9   36 1
  20   10   11 1
  21   11   12 1
  22   11   37 1
  23   11   38 1
  24   12   39 1
  25   12   40 1
  26   13   14 2
  27   13   15 am
  28   15   16 1
  29   15   41 1
  30   16   18 1
  31   16   17 1
  32   16   42 1
  33   17   28 am
  34   17   29 2
  35   18   19 1
  36   18   20 1
  37   18   21 1
  38   19   43 1
  39   19   44 1
  40   19   45 1
  41   20   46 1
  42   20   47 1
  43   20   48 1
  44   21   49 1
  45   21   50 1
  46   21   51 1
  47   22   23 ar
  48   22   27 1
  49   23   24 ar
  50   23   26 1
  51   24   25 ar
  52   24   52 1
  53   25   53 1
  54   28   30 1
  55   28   31 1
  56   30   54 1
  57   30   55 1
  58   30   56 1
  59   31   57 1
  60   31   58 1
  61   31   59 1

#	End of record

