#	Name: ASD03092547
#	Creating user name:	WinNT
#	Creation time:	15. 06. 2019 20:32

#	Modifying user name:	WinNT
#	Modification time:	15. 06. 2019 20:32

#	Program:	/corina/corina34_cracker 3.40 0067  02.08.2006

@<TRIPOS>MOLECULE
ASD03092547
  38   40    0    0    0
SMALL
NO_CHARGES


@<TRIPOS>ATOM
   1 S1            -0.0211     1.7053     0.0114 S.3     
   2 C2             0.0021    -0.0041     0.0020 C.2     
   3 N3             1.2212    -0.4385    -0.0120 N.2     
   4 C4             2.1785     0.4550    -0.0163 C.2     
   5 C5             1.7406     1.7389    -0.0052 C.2     
   6 C6             2.5827     2.9399    -0.0072 C.2     
   7 O7             3.7948     2.8331    -0.0198 O.2     
   8 N8             2.0140     4.1618     0.0048 N.am    
   9 C9             2.8551     5.3613     0.0028 C.3     
  10 C10            3.2650     5.6991     1.4376 C.3     
  11 N11            0.1976     9.7502    -2.3215 N.pl3   
  12 C12            1.2273    10.2936    -3.0404 C.2     
  13 C13            2.3411     9.5646    -2.8670 C.2     
  14 C14            1.9965     8.4646    -1.9632 C.ar    
  15 C15            2.7112     7.3956    -1.4188 C.ar    
  16 C16            2.0833     6.5150    -0.5840 C.ar    
  17 C17            0.7398     6.6742    -0.2724 C.ar    
  18 C18            0.0158     7.7212    -0.7987 C.ar    
  19 C19            0.6350     8.6300    -1.6509 C.ar    
  20 C20            1.1258    11.5273    -3.8999 C.3     
  21 C21           -1.2235    -0.8810     0.0098 C.3     
  22 H22            3.2260     0.1924    -0.0274 H       
  23 H23            1.0478     4.2469     0.0148 H       
  24 H24            3.7471     5.1786    -0.5965 H       
  25 H25            3.8233     4.8647     1.8620 H       
  26 H26            3.8908     6.5916     1.4361 H       
  27 H27            2.3731     5.8818     2.0369 H       
  28 H28           -0.7049    10.1039    -2.2861 H       
  29 H29            3.3078     9.7534    -3.3099 H       
  30 H30            3.7564     7.2650    -1.6574 H       
  31 H31            0.2573     5.9697     0.3890 H       
  32 H32           -1.0290     7.8363    -0.5505 H       
  33 H33            1.3573    12.4077    -3.3005 H       
  34 H34            1.8331    11.4538    -4.7260 H       
  35 H35            0.1134    11.6126    -4.2949 H       
  36 H36           -1.5294    -1.0869    -1.0159 H       
  37 H37           -0.9959    -1.8189     0.5163 H       
  38 H38           -2.0316    -0.3714     0.5346 H       
@<TRIPOS>BOND
   1    1    2 1
   2    1    5 1
   3    2    3 2
   4    2   21 1
   5    3    4 1
   6    4    5 2
   7    4   22 1
   8    5    6 1
   9    6    7 2
  10    6    8 am
  11    8    9 1
  12    8   23 1
  13    9   10 1
  14    9   16 1
  15    9   24 1
  16   10   25 1
  17   10   26 1
  18   10   27 1
  19   11   12 1
  20   11   19 1
  21   11   28 1
  22   12   13 2
  23   12   20 1
  24   13   14 1
  25   13   29 1
  26   14   15 ar
  27   14   19 ar
  28   15   16 ar
  29   15   30 1
  30   16   17 ar
  31   17   18 ar
  32   17   31 1
  33   18   19 ar
  34   18   32 1
  35   20   33 1
  36   20   34 1
  37   20   35 1
  38   21   36 1
  39   21   37 1
  40   21   38 1

#	End of record

