#	Name: ASD08178069
#	Creating user name:	WinNT
#	Creation time:	15. 06. 2019 21:18

#	Modifying user name:	WinNT
#	Modification time:	15. 06. 2019 21:18

#	Program:	/corina/corina34_cracker 3.40 0067  02.08.2006

@<TRIPOS>MOLECULE
ASD08178069
  70   73    0    0    0
SMALL
NO_CHARGES


@<TRIPOS>ATOM
   1 N1            -0.0150     1.2583     0.0090 N.2     
   2 N2             0.0021    -0.0041     0.0020 N.2     
   3 C3             1.1271     1.8769     0.0014 C.2     
   4 S4             2.3826     0.7116    -0.0169 S.3     
   5 C5             1.1681    -0.5677    -0.0121 C.2     
   6 N6             1.3017     3.2566     0.0067 N.am    
   7 C7             0.2284     4.0717     0.0214 C.2     
   8 O8            -0.8897     3.6019     0.0299 O.2     
   9 C9             1.4387    -2.0502    -0.0227 C.3     
  10 C10            1.5165    -2.5442    -1.4687 C.3     
  11 C11            1.7912    -4.0493    -1.4794 C.3     
  12 C12            1.8690    -4.5432    -2.9254 C.3     
  13 C13            2.1395    -6.0257    -2.9359 C.2     
  14 N14            1.2478    -6.9651    -2.9329 N.2     
  15 S15            3.7275    -6.7933    -2.9623 S.3     
  16 C16            2.9647    -8.3272    -2.9581 C.2     
  17 N17            1.6777    -8.1521    -2.9433 N.2     
  18 N18            3.6154    -9.5562    -2.9730 N.am    
  19 C19            2.8993   -10.6980    -2.9678 C.2     
  20 O20            1.6874   -10.6536    -2.9501 O.2     
  21 C21            3.6044   -12.0297    -2.9839 C.3     
  22 C22            0.4176     5.5667     0.0272 C.3     
  23 C23            1.0890     5.9832     1.3105 C.ar    
  24 C24            4.3515   -12.1869    -4.2832 C.ar    
  25 C25            3.6750   -12.5641    -5.4282 C.ar    
  26 C26            2.4470     6.2410     1.3280 C.ar    
  27 C27            3.0628     6.6229     2.5052 C.ar    
  28 C28            2.3206     6.7475     3.6647 C.ar    
  29 C29            0.9625     6.4905     3.6470 C.ar    
  30 C30            0.3458     6.1128     2.4688 C.ar    
  31 O31           -0.8757     6.2187    -0.0762 O.3     
  32 C32            5.7123   -11.9483    -4.3313 C.ar    
  33 C33            6.3975   -12.0925    -5.5232 C.ar    
  34 C34            5.7221   -12.4757    -6.6668 C.ar    
  35 C35            4.3603   -12.7083    -6.6200 C.ar    
  36 O36            2.6275   -13.0962    -2.8552 O.3     
  37 C37           -1.3267     6.4853    -1.3120 C.2     
  38 C38           -2.6611     7.1606    -1.4977 C.3     
  39 O39           -0.6629     6.1839    -2.2755 O.2     
  40 C40            2.3268   -13.5004    -1.6110 C.2     
  41 C41            1.3215   -14.6029    -1.3992 C.3     
  42 O42            2.8622   -12.9802    -0.6609 O.2     
  43 H43            2.1959     3.6323    -0.0001 H       
  44 H44            2.3843    -2.2506     0.4811 H       
  45 H45            0.6334    -2.5702     0.4961 H       
  46 H46            0.5709    -2.3438    -1.9724 H       
  47 H47            2.3218    -2.0242    -1.9874 H       
  48 H48            2.7368    -4.2496    -0.9756 H       
  49 H49            0.9858    -4.5693    -0.9606 H       
  50 H50            0.9234    -4.3429    -3.4291 H       
  51 H51            2.6743    -4.0232    -3.4441 H       
  52 H52            4.5846    -9.5917    -2.9871 H       
  53 H53            4.3075   -12.0787    -2.1523 H       
  54 H54            1.0397     5.8575    -0.8193 H       
  55 H55            2.6112   -12.7466    -5.3915 H       
  56 H56            3.0268     6.1437     0.4221 H       
  57 H57            4.1239     6.8237     2.5191 H       
  58 H58            2.8019     7.0452     4.5846 H       
  59 H59            0.3827     6.5874     4.5530 H       
  60 H60           -0.7153     5.9120     2.4550 H       
  61 H61            6.2399   -11.6489    -3.4378 H       
  62 H62            7.4605   -11.9054    -5.5609 H       
  63 H63            6.2575   -12.5881    -7.5980 H       
  64 H64            3.8326   -13.0077    -7.5135 H       
  65 H65           -2.6473     8.1336    -1.0068 H       
  66 H66           -2.8562     7.2932    -2.5619 H       
  67 H67           -3.4449     6.5432    -1.0588 H       
  68 H68            1.8336   -15.5651    -1.3920 H       
  69 H69            0.8145   -14.4540    -0.4459 H       
  70 H70            0.5893   -14.5870    -2.2065 H       
@<TRIPOS>BOND
   1    1    2 1
   2    1    3 2
   3    2    5 2
   4    3    4 1
   5    3    6 1
   6    4    5 1
   7    5    9 1
   8    6    7 am
   9    6   43 1
  10    7    8 2
  11    7   22 1
  12    9   10 1
  13    9   44 1
  14    9   45 1
  15   10   11 1
  16   10   46 1
  17   10   47 1
  18   11   12 1
  19   11   48 1
  20   11   49 1
  21   12   13 1
  22   12   50 1
  23   12   51 1
  24   13   14 2
  25   13   15 1
  26   14   17 1
  27   15   16 1
  28   16   17 2
  29   16   18 1
  30   18   19 am
  31   18   52 1
  32   19   20 2
  33   19   21 1
  34   21   36 1
  35   21   24 1
  36   21   53 1
  37   22   23 1
  38   22   31 1
  39   22   54 1
  40   23   26 ar
  41   23   30 ar
  42   24   32 ar
  43   24   25 ar
  44   25   35 ar
  45   25   55 1
  46   26   27 ar
  47   26   56 1
  48   27   28 ar
  49   27   57 1
  50   28   29 ar
  51   28   58 1
  52   29   30 ar
  53   29   59 1
  54   30   60 1
  55   31   37 1
  56   32   33 ar
  57   32   61 1
  58   33   34 ar
  59   33   62 1
  60   34   35 ar
  61   34   63 1
  62   35   64 1
  63   36   40 1
  64   37   38 1
  65   37   39 2
  66   38   65 1
  67   38   66 1
  68   38   67 1
  69   40   41 1
  70   40   42 2
  71   41   68 1
  72   41   69 1
  73   41   70 1

#	End of record

