#	Name: ASD08070094
#	Creating user name:	WinNT
#	Creation time:	15. 06. 2019 21:14

#	Modifying user name:	WinNT
#	Modification time:	15. 06. 2019 21:14

#	Program:	/corina/corina34_cracker 3.40 0067  02.08.2006

@<TRIPOS>MOLECULE
ASD08070094
  46   46    0    0    0
SMALL
NO_CHARGES


@<TRIPOS>ATOM
   1 C1            -0.0166     1.3754     0.0096 C.ar    
   2 C2             0.0021    -0.0041     0.0020 C.ar    
   3 C3             1.1702     2.0864     0.0021 C.ar    
   4 C4             2.3828     1.4202    -0.0131 C.ar    
   5 C5             2.4156     0.0411    -0.0213 C.ar    
   6 C6             1.2219    -0.6823    -0.0133 C.ar    
   7 C7             1.2495    -2.1605    -0.0216 C.2     
   8 O8             2.3132    -2.7484    -0.0354 O.2     
   9 C9            -1.1812    -4.8518    -0.6215 C.3     
  10 C10            0.1224    -4.3208    -0.0220 C.3     
  11 N11            0.0951    -2.8560    -0.0138 N.am    
  12 C12            0.2697    -4.8283     1.3893 C.2     
  13 O13            0.3442    -4.0467     2.3077 O.2     
  14 C14            1.1421     3.5931     0.0100 C.3     
  15 C15           -1.2709    -4.4405    -2.0924 C.3     
  16 O16            0.3181    -6.1487     1.6261 O.3     
  17 C17           -0.1537    -5.1250    -2.8824 C.3     
  18 C18            0.4610    -6.5655     3.0096 C.3     
  19 C19            1.1461     4.0957     1.4551 C.3     
  20 C20            1.1176     5.6254     1.4631 C.3     
  21 C21           -2.6283    -4.8628    -2.6582 C.3     
  22 H22           -0.9598     1.9014     0.0169 H       
  23 H23           -0.9251    -0.5579     0.0083 H       
  24 H24            3.3057     1.9812    -0.0189 H       
  25 H25            3.3627    -0.4777    -0.0339 H       
  26 H26           -1.1992    -5.9391    -0.5465 H       
  27 H27           -2.0281    -4.4360    -0.0756 H       
  28 H28            0.9649    -4.6651    -0.6217 H       
  29 H29           -0.7538    -2.3868    -0.0028 H       
  30 H30            2.0203     3.9756    -0.5101 H       
  31 H31            0.2408     3.9424    -0.4936 H       
  32 H32           -1.1638    -3.3588    -2.1744 H       
  33 H33           -0.2609    -6.2066    -2.8005 H       
  34 H34           -0.2176    -4.8319    -3.9304 H       
  35 H35            0.8133    -4.8241    -2.4793 H       
  36 H36            1.3873    -6.1607     3.4172 H       
  37 H37           -0.3839    -6.1947     3.5899 H       
  38 H38            0.4868    -7.6540     3.0603 H       
  39 H39            0.2680     3.7132     1.9752 H       
  40 H40            2.0475     3.7465     1.9587 H       
  41 H41            1.9958     6.0079     0.9430 H       
  42 H42            0.2162     5.9746     0.9595 H       
  43 H43            1.1205     5.9835     2.4926 H       
  44 H44           -3.4242    -4.3752    -2.0954 H       
  45 H45           -2.6921    -4.5697    -3.7062 H       
  46 H46           -2.7354    -5.9444    -2.5763 H       
@<TRIPOS>BOND
   1    1    2 ar
   2    1    3 ar
   3    1   22 1
   4    2    6 ar
   5    2   23 1
   6    3    4 ar
   7    3   14 1
   8    4    5 ar
   9    4   24 1
  10    5    6 ar
  11    5   25 1
  12    6    7 1
  13    7    8 2
  14    7   11 am
  15    9   15 1
  16    9   10 1
  17    9   26 1
  18    9   27 1
  19   10   12 1
  20   10   11 1
  21   10   28 1
  22   11   29 1
  23   12   13 2
  24   12   16 1
  25   14   19 1
  26   14   30 1
  27   14   31 1
  28   15   17 1
  29   15   21 1
  30   15   32 1
  31   16   18 1
  32   17   33 1
  33   17   34 1
  34   17   35 1
  35   18   36 1
  36   18   37 1
  37   18   38 1
  38   19   20 1
  39   19   39 1
  40   19   40 1
  41   20   41 1
  42   20   42 1
  43   20   43 1
  44   21   44 1
  45   21   45 1
  46   21   46 1

#	End of record

