#	Name: ASD01150129
#	Creating user name:	WinNT
#	Creation time:	15. 06. 2019 19:03

#	Modifying user name:	WinNT
#	Modification time:	15. 06. 2019 19:03

#	Program:	/corina/corina34_cracker 3.40 0067  02.08.2006

@<TRIPOS>MOLECULE
ASD01150129
  57   59    0    0    0
SMALL
NO_CHARGES


@<TRIPOS>ATOM
   1 N1            -0.6652     0.8667    -1.4937 N.pl3   
   2 C2            -0.6718    -0.5007    -1.3039 C.2     
   3 C3            -1.9704    -0.8366    -0.9421 C.2     
   4 N4            -2.6815     0.2937    -0.9249 N.2     
   5 C5            -1.9146     1.3049    -1.2443 C.2     
   6 C6             0.3007    -1.5192    -1.3997 C.2     
   7 N7            -0.0530    -2.7946    -1.1377 N.am    
   8 C8            -1.3134    -3.1056    -0.7891 C.2     
   9 N9            -2.2708    -2.1646    -0.6859 N.am    
  10 O10            1.4458    -1.2498    -1.7154 O.2     
  11 C11           -3.6326    -2.5457    -0.3030 C.3     
  12 O12           -1.5959    -4.2661    -0.5607 O.2     
  13 C13            0.9515    -3.8566    -1.2352 C.3     
  14 C14            1.6284    -4.0319     0.0997 C.ar    
  15 C15            1.1134    -4.9216     1.0240 C.ar    
  16 C16            1.7337    -5.0828     2.2485 C.ar    
  17 C17            2.8703    -4.3535     2.5492 C.ar    
  18 C18            3.3852    -3.4632     1.6238 C.ar    
  19 C19            2.7672    -3.3070     0.3974 C.ar    
  20 Cl20           3.6497    -4.5550     4.0873 Cl      
  21 C21           -2.3636     2.7409    -1.3304 C.3     
  22 C22           -2.1837     3.4140     0.0318 C.3     
  23 C23            0.4838     1.6866    -1.8858 C.3     
  24 C24           -3.7694    -2.4876     1.2198 C.3     
  25 N25           -5.1348    -2.8697     1.6037 N.3     
  26 C26           -5.3970    -4.2791     1.2828 C.3     
  27 C27           -5.3763    -2.6002     3.0274 C.3     
  28 C28           -6.9049    -4.5366     1.3111 C.3     
  29 C29           -5.5974    -1.1002     3.2322 C.3     
  30 H30           -4.3442    -1.8569    -0.7583 H       
  31 H31           -3.8367    -3.5594    -0.6477 H       
  32 H32            0.4669    -4.7898    -1.5223 H       
  33 H33            1.6938    -3.5866    -1.9863 H       
  34 H34            0.2259    -5.4906     0.7893 H       
  35 H35            1.3311    -5.7777     2.9706 H       
  36 H36            4.2725    -2.8936     1.8580 H       
  37 H37            3.1691    -2.6121    -0.3250 H       
  38 H38           -1.7656     3.2645    -2.0762 H       
  39 H39           -3.4146     2.7764    -1.6172 H       
  40 H40           -2.5085     4.4526    -0.0304 H       
  41 H41           -2.7818     2.8904     0.7776 H       
  42 H42           -1.1327     3.3785     0.3186 H       
  43 H43            0.5283     1.7537    -2.9729 H       
  44 H44            0.3778     2.6861    -1.4642 H       
  45 H45            1.4004     1.2300    -1.5122 H       
  46 H46           -3.0577    -3.1764     1.6750 H       
  47 H47           -3.5652    -1.4739     1.5645 H       
  48 H48           -5.0086    -4.5039     0.2895 H       
  49 H49           -4.9057    -4.9165     2.0179 H       
  50 H50           -6.2609    -3.1460     3.3556 H       
  51 H51           -4.5133    -2.9232     3.6098 H       
  52 H52           -7.1087    -5.5422     0.9434 H       
  53 H53           -7.2704    -4.4426     2.3337 H       
  54 H54           -7.4099    -3.8083     0.6764 H       
  55 H55           -4.7156    -0.5539     2.8972 H       
  56 H56           -6.4648    -0.7788     2.6557 H       
  57 H57           -5.7692    -0.8993     4.2897 H       
@<TRIPOS>BOND
   1    1    2 1
   2    1   23 1
   3    1    5 1
   4    2    3 2
   5    2    6 1
   6    3    4 1
   7    3    9 1
   8    4    5 2
   9    5   21 1
  10    6    7 am
  11    6   10 2
  12    7    8 am
  13    7   13 1
  14    8    9 am
  15    8   12 2
  16    9   11 1
  17   11   24 1
  18   11   30 1
  19   11   31 1
  20   13   14 1
  21   13   32 1
  22   13   33 1
  23   14   15 ar
  24   14   19 ar
  25   15   16 ar
  26   15   34 1
  27   16   17 ar
  28   16   35 1
  29   17   18 ar
  30   17   20 1
  31   18   19 ar
  32   18   36 1
  33   19   37 1
  34   21   22 1
  35   21   38 1
  36   21   39 1
  37   22   40 1
  38   22   41 1
  39   22   42 1
  40   23   43 1
  41   23   44 1
  42   23   45 1
  43   24   25 1
  44   24   46 1
  45   24   47 1
  46   25   26 1
  47   25   27 1
  48   26   28 1
  49   26   48 1
  50   26   49 1
  51   27   29 1
  52   27   50 1
  53   27   51 1
  54   28   52 1
  55   28   53 1
  56   28   54 1
  57   29   55 1
  58   29   56 1
  59   29   57 1

#	End of record

