#	Name: ASD08070276
#	Creating user name:	WinNT
#	Creation time:	15. 06. 2019 21:14

#	Modifying user name:	WinNT
#	Modification time:	15. 06. 2019 21:14

#	Program:	/corina/corina34_cracker 3.40 0067  02.08.2006

@<TRIPOS>MOLECULE
ASD08070276
  35   36    0    0    0
SMALL
NO_CHARGES


@<TRIPOS>ATOM
   1 O1            -0.0162     1.3449     0.0094 O.3     
   2 C2             0.0021    -0.0041     0.0020 C.2     
   3 C3             1.3061    -0.4089    -0.0126 C.2     
   4 C4             2.0900     0.7554    -0.0138 C.2     
   5 C5             1.2410     1.8066    -0.0001 C.2     
   6 C6            -1.1727    -0.8819     0.0093 C.2     
   7 O7            -1.0294    -2.0904     0.0018 O.2     
   8 N8            -2.4111    -0.3503     0.0242 N.am    
   9 C9            -3.5847    -1.2272     0.0314 C.3     
  10 C10           -4.8566    -0.3769     0.0483 C.3     
  11 C11           -6.0638    -1.2790     0.0557 C.ar    
  12 C12           -6.6056    -1.6987     1.2562 C.ar    
  13 C13           -8.2787    -2.9335     0.0694 C.ar    
  14 C14           -6.6327    -1.6821    -1.1379 C.ar    
  15 C15           -7.7129    -2.5261     1.2631 C.ar    
  16 C16           -7.7400    -2.5095    -1.1310 C.ar    
  17 C17           -9.4855    -3.8360     0.0768 C.3     
  18 C18            1.8066    -1.8303    -0.0246 C.3     
  19 H19            3.1690     0.8024    -0.0232 H       
  20 H20            1.5287     2.8475     0.0024 H       
  21 H21           -2.5254     0.6130     0.0302 H       
  22 H22           -3.5770    -1.8518    -0.8618 H       
  23 H23           -3.5594    -1.8607     0.9180 H       
  24 H24           -4.8642     0.2477     0.9415 H       
  25 H25           -4.8819     0.2566    -0.8383 H       
  26 H26           -6.1635    -1.3804     2.1888 H       
  27 H27           -6.2123    -1.3503    -2.0757 H       
  28 H28           -8.1358    -2.8546     2.2010 H       
  29 H29           -8.1821    -2.8278    -2.0636 H       
  30 H30          -10.3919    -3.2305     0.0894 H       
  31 H31           -9.4780    -4.4602    -0.8167 H       
  32 H32           -9.4597    -4.4699     0.9631 H       
  33 H33            1.9173    -2.1678    -1.0551 H       
  34 H34            2.7716    -1.8799     0.4797 H       
  35 H35            1.0928    -2.4712     0.4930 H       
@<TRIPOS>BOND
   1    1    2 1
   2    1    5 1
   3    2    3 2
   4    2    6 1
   5    3    4 1
   6    3   18 1
   7    4    5 2
   8    4   19 1
   9    5   20 1
  10    6    7 2
  11    6    8 am
  12    8    9 1
  13    8   21 1
  14    9   10 1
  15    9   22 1
  16    9   23 1
  17   10   11 1
  18   10   24 1
  19   10   25 1
  20   11   12 ar
  21   11   14 ar
  22   12   15 ar
  23   12   26 1
  24   13   15 ar
  25   13   16 ar
  26   13   17 1
  27   14   16 ar
  28   14   27 1
  29   15   28 1
  30   16   29 1
  31   17   30 1
  32   17   31 1
  33   17   32 1
  34   18   33 1
  35   18   34 1
  36   18   35 1

#	End of record

