#	Name: ASD01840265
#	Creating user name:	WinNT
#	Creation time:	15. 06. 2019 19:37

#	Modifying user name:	WinNT
#	Modification time:	15. 06. 2019 19:37

#	Program:	/corina/corina34_cracker 3.40 0067  02.08.2006

@<TRIPOS>MOLECULE
ASD01840265
  46   50    0    0    0
SMALL
NO_CHARGES


@<TRIPOS>ATOM
   1 C1             1.7187     1.2820     0.2338 C.3     
   2 C2             1.2770    -0.1568     0.1586 C.ar    
   3 N3             1.3876    -0.8222    -0.9778 N.ar    
   4 N4             1.0291    -2.0455    -1.0998 N.ar    
   5 C5             0.5149    -2.7425    -0.0844 C.ar    
   6 S6            -0.0418    -4.4063    -0.0084 S.3     
   7 C7            -0.4827    -4.2708     1.6871 C.2     
   8 C8            -1.0311    -5.0293     2.7530 C.2     
   9 N9            -1.4402    -6.3668     2.6798 N.pl3   
  10 C10           -1.9918    -7.0300     3.8640 C.3     
  11 C11           -2.3513    -8.4527     3.5212 C.ar    
  12 C12           -3.6142    -8.7495     3.0446 C.ar    
  13 C13           -3.9482   -10.0536     2.7304 C.ar    
  14 C14           -3.0165   -11.0677     2.8924 C.ar    
  15 O15           -3.3621   -12.3479     2.5858 O.3     
  16 C16           -2.2891   -13.2789     2.4073 C.3     
  17 C17           -1.2963   -13.0955     3.5631 C.3     
  18 O18           -0.8138   -11.7479     3.5302 O.3     
  19 C19           -1.7452   -10.7687     3.3689 C.ar    
  20 C20           -1.4155    -9.4580     3.6787 C.ar    
  21 N21           -1.0903    -4.2696     3.8149 N.2     
  22 N22           -0.5921    -3.0035     3.4963 N.pl3   
  23 C23           -0.4865    -1.8631     4.4099 C.3     
  24 C24           -0.2162    -3.0181     2.1641 C.2     
  25 C25            0.3584    -2.1252     1.1581 C.ar    
  26 C26            0.7633    -0.7784     1.2771 C.ar    
  27 C27            0.6337    -0.0409     2.5850 C.3     
  28 H28            2.7704     1.3248     0.5171 H       
  29 H29            1.5850     1.7545    -0.7393 H       
  30 H30            1.1203     1.8074     0.9781 H       
  31 H31           -1.3584    -6.8541     1.8451 H       
  32 H32           -1.2494    -7.0250     4.6621 H       
  33 H33           -2.8845    -6.4992     4.1949 H       
  34 H34           -4.3415    -7.9612     2.9177 H       
  35 H35           -4.9360   -10.2829     2.3588 H       
  36 H36           -2.6799   -14.2964     2.4164 H       
  37 H37           -1.7886   -13.0853     1.4586 H       
  38 H38           -1.7983   -13.2831     4.5122 H       
  39 H39           -0.4624   -13.7875     3.4446 H       
  40 H40           -0.4279    -9.2228     4.0470 H       
  41 H41            0.5266    -1.8094     4.8084 H       
  42 H42           -0.7142    -0.9435     3.8709 H       
  43 H43           -1.1935    -1.9880     5.2301 H       
  44 H44           -0.3850     0.3317     2.6925 H       
  45 H45            0.8616    -0.7182     3.4081 H       
  46 H46            1.3306     0.7970     2.6002 H       
@<TRIPOS>BOND
   1    1    2 1
   2    1   28 1
   3    1   29 1
   4    1   30 1
   5    2   26 ar
   6    2    3 ar
   7    3    4 ar
   8    4    5 ar
   9    5   25 ar
  10    5    6 1
  11    6    7 1
  12    7   24 2
  13    7    8 1
  14    8    9 1
  15    8   21 2
  16    9   10 1
  17    9   31 1
  18   10   11 1
  19   10   32 1
  20   10   33 1
  21   11   20 ar
  22   11   12 ar
  23   12   13 ar
  24   12   34 1
  25   13   14 ar
  26   13   35 1
  27   14   19 ar
  28   14   15 1
  29   15   16 1
  30   16   17 1
  31   16   36 1
  32   16   37 1
  33   17   18 1
  34   17   38 1
  35   17   39 1
  36   18   19 1
  37   19   20 ar
  38   20   40 1
  39   21   22 1
  40   22   23 1
  41   22   24 1
  42   23   41 1
  43   23   42 1
  44   23   43 1
  45   24   25 1
  46   25   26 ar
  47   26   27 1
  48   27   44 1
  49   27   45 1
  50   27   46 1

#	End of record

