#	Name: ASD05430388
#	Creating user name:	WinNT
#	Creation time:	15. 06. 2019 21:00

#	Modifying user name:	WinNT
#	Modification time:	15. 06. 2019 21:00

#	Program:	/corina/corina34_cracker 3.40 0067  02.08.2006

@<TRIPOS>MOLECULE
ASD05430388
  59   63    0    0    0
SMALL
NO_CHARGES


@<TRIPOS>ATOM
   1 C1            -0.1202     1.0572    -0.7780 C.ar    
   2 C2            -0.1793    -0.2766    -1.1802 C.ar    
   3 C3            -1.4081    -0.8858    -1.3985 C.ar    
   4 C4            -2.5750    -0.1753    -1.2182 C.ar    
   5 C5            -2.5236     1.1630    -0.8143 C.ar    
   6 C6            -1.2865     1.7747    -0.5896 C.ar    
   7 C7            -4.9604     1.2922    -0.6744 C.2     
   8 C8            -3.7685     1.9237    -0.6217 C.2     
   9 N9            -7.2725     1.4832     0.0720 N.pl3   
  10 C10           -6.2313     2.0468    -0.6653 C.2     
  11 O11            1.0845     1.6503    -0.5657 O.3     
  12 C12            1.0704     3.0190    -0.1551 C.3     
  13 C13            1.2911    -2.2405    -0.8464 C.2     
  14 N14            1.0049    -1.0044    -1.3653 N.pl3   
  15 C15            2.5271    -2.5653    -1.2713 C.2     
  16 N16            2.9873    -1.5589    -2.0289 N.2     
  17 C17            2.0846    -0.6180    -2.0928 C.2     
  18 C18            3.2656    -3.8392    -0.9504 C.3     
  19 C19           -7.0801     0.1219     0.5904 C.3     
  20 O20           -5.0404    -0.0685    -0.7439 O.3     
  21 C21           -8.4956     2.2503     0.2878 C.3     
  22 C22           -8.7809     3.0711    -0.9751 C.3     
  23 O23           -7.6311     3.8304    -1.3349 O.3     
  24 N24           -6.3957     3.1510    -1.3114 N.2     
  25 C25           -9.6438     1.3108     0.5525 C.ar    
  26 C26          -10.3087     0.7176    -0.5044 C.ar    
  27 C27          -11.7505    -0.4136     1.0385 C.ar    
  28 C28          -11.0801     0.1766     2.0964 C.ar    
  29 C29          -10.0276     1.0383     1.8524 C.ar    
  30 F30          -12.7796    -1.2562     1.2759 F       
  31 C31          -11.3618    -0.1441    -0.2628 C.ar    
  32 C32           -6.2883    -0.6875    -0.4395 C.3     
  33 C33           -8.3112     3.1890     1.4817 C.3     
  34 O34           -9.5108     3.9375     1.6889 O.3     
  35 H35           -1.4492    -1.9189    -1.7107 H       
  36 H36           -3.5292    -0.6515    -1.3890 H       
  37 H37           -1.2422     2.8077    -0.2776 H       
  38 H38           -3.7286     2.9872    -0.4381 H       
  39 H39            0.5773     3.6220    -0.9175 H       
  40 H40            0.5290     3.1102     0.7866 H       
  41 H41            2.0940     3.3687    -0.0210 H       
  42 H42            0.6502    -2.8372    -0.2142 H       
  43 H43            2.1801     0.3116    -2.6342 H       
  44 H44            3.0402    -4.5904    -1.7073 H       
  45 H45            4.3381    -3.6446    -0.9397 H       
  46 H46            2.9528    -4.2039     0.0280 H       
  47 H47           -6.5280     0.1632     1.5293 H       
  48 H48           -8.0504    -0.3467     0.7551 H       
  49 H49           -9.0402     2.3984    -1.7926 H       
  50 H50           -9.6155     3.7463    -0.7865 H       
  51 H51          -10.0053     0.9280    -1.5194 H       
  52 H52          -11.3798    -0.0361     3.1120 H       
  53 H53           -9.5046     1.4988     2.6775 H       
  54 H54          -11.8816    -0.6068    -1.0887 H       
  55 H55           -6.1032    -1.6855    -0.0421 H       
  56 H56           -6.8759    -0.7728    -1.3536 H       
  57 H57           -8.0899     2.6031     2.3738 H       
  58 H58           -7.4862     3.8729     1.2822 H       
  59 H59           -9.4658     4.5548     2.4319 H       
@<TRIPOS>BOND
   1    1    2 ar
   2    1   11 1
   3    1    6 ar
   4    2    3 ar
   5    2   14 1
   6    3    4 ar
   7    3   35 1
   8    4    5 ar
   9    4   36 1
  10    5    6 ar
  11    5    8 1
  12    6   37 1
  13    7    8 2
  14    7   20 1
  15    7   10 1
  16    8   38 1
  17    9   10 1
  18    9   21 1
  19    9   19 1
  20   10   24 2
  21   11   12 1
  22   12   39 1
  23   12   40 1
  24   12   41 1
  25   13   14 1
  26   13   15 2
  27   13   42 1
  28   14   17 1
  29   15   16 1
  30   15   18 1
  31   16   17 2
  32   17   43 1
  33   18   44 1
  34   18   45 1
  35   18   46 1
  36   19   32 1
  37   19   47 1
  38   19   48 1
  39   20   32 1
  40   21   22 1
  41   21   25 1
  42   21   33 1
  43   22   23 1
  44   22   49 1
  45   22   50 1
  46   23   24 1
  47   25   26 ar
  48   25   29 ar
  49   26   31 ar
  50   26   51 1
  51   27   28 ar
  52   27   30 1
  53   27   31 ar
  54   28   29 ar
  55   28   52 1
  56   29   53 1
  57   31   54 1
  58   32   55 1
  59   32   56 1
  60   33   34 1
  61   33   57 1
  62   33   58 1
  63   34   59 1

#	End of record

