#	Name: ASD01881575
#	Creating user name:	WinNT
#	Creation time:	15. 06. 2019 19:42

#	Modifying user name:	WinNT
#	Modification time:	15. 06. 2019 19:42

#	Program:	/corina/corina34_cracker 3.40 0067  02.08.2006

@<TRIPOS>MOLECULE
ASD01881575
  56   59    0    0    0
SMALL
NO_CHARGES


@<TRIPOS>ATOM
   1 C1            -0.0168     1.3895     0.0097 C.ar    
   2 C2             0.0021    -0.0041     0.0020 C.ar    
   3 C3            -1.1636    -0.7168     0.0093 C.ar    
   4 C4            -2.3833    -0.0518     0.0245 C.ar    
   5 C5            -2.4151     1.3554     0.0324 C.ar    
   6 C6            -1.2156     2.0720     0.0305 C.ar    
   7 N7            -3.7006    -0.4420     0.0355 N.pl3   
   8 N8            -4.4331     0.6175     0.0484 N.2     
   9 N9            -3.7213     1.6894     0.0471 N.2     
  10 C10           -4.1878    -1.8237     0.0324 C.3     
  11 C11           -4.3430    -2.3129     1.4738 C.3     
  12 C12           -4.9546    -3.6990     1.6874 C.3     
  13 C13           -3.4591    -3.4780     1.9234 C.3     
  14 O14            1.1539     2.0808     0.0022 O.3     
  15 C15            2.3599     1.3144    -0.0134 C.3     
  16 C16            3.5640     2.2582    -0.0198 C.3     
  17 C17            4.8552     1.4376    -0.0366 C.3     
  18 C18            6.0593     2.3815    -0.0430 C.3     
  19 C19            6.0039     3.2705    -1.2870 C.3     
  20 C20            4.7127     4.0911    -1.2703 C.3     
  21 C21            3.5086     3.1472    -1.2639 C.3     
  22 C22            3.5324     3.1338     1.2345 C.3     
  23 C23            7.1899     4.2001    -1.2934 C.2     
  24 O24            7.7313     4.4953    -0.2550 O.2     
  25 C25            7.7004     4.7615    -2.5954 C.3     
  26 O26            8.8226     5.6089    -2.3414 O.3     
  27 C27           -1.2314     3.5789     0.0393 C.3     
  28 F28           -1.2297     4.0376     1.3610 F       
  29 F29           -0.0974     4.0610    -0.6231 F       
  30 F30           -2.3818     4.0371    -0.6117 F       
  31 H31            0.9476    -0.5258    -0.0102 H       
  32 H32           -1.1369    -1.7965     0.0029 H       
  33 H33           -5.1530    -1.8675    -0.4721 H       
  34 H34           -3.4745    -2.4593    -0.4922 H       
  35 H35           -4.5733    -1.5424     2.2095 H       
  36 H36           -5.5869    -3.8405     2.5638 H       
  37 H37           -5.2464    -4.2623     0.8010 H       
  38 H38           -2.7671    -3.8960     1.1923 H       
  39 H39           -3.1076    -3.4741     2.9551 H       
  40 H40            2.3994     0.6811     0.8728 H       
  41 H41            2.3824     0.6906    -0.9070 H       
  42 H42            4.8947     0.8043     0.8497 H       
  43 H43            4.8777     0.8139    -0.9302 H       
  44 H44            6.0368     3.0052     0.8506 H       
  45 H45            6.9792     1.7969    -0.0549 H       
  46 H46            6.0264     2.6467    -2.1806 H       
  47 H47            4.6902     4.7148    -0.3767 H       
  48 H48            4.6732     4.7244    -2.1565 H       
  49 H49            3.5311     2.5235    -2.1575 H       
  50 H50            2.5887     3.7318    -1.2519 H       
  51 H51            3.5719     2.5005     2.1207 H       
  52 H52            4.3903     3.8062     1.2299 H       
  53 H53            2.6125     3.7184     1.2464 H       
  54 H54            8.0031     3.9440    -3.2497 H       
  55 H55            6.9108     5.3387    -3.0766 H       
  56 H56            9.2036     6.0060    -3.1366 H       
@<TRIPOS>BOND
   1    1    2 ar
   2    1   14 1
   3    1    6 ar
   4    2    3 ar
   5    2   31 1
   6    3    4 ar
   7    3   32 1
   8    4    5 ar
   9    4    7 1
  10    5    6 ar
  11    5    9 1
  12    6   27 1
  13    7    8 1
  14    7   10 1
  15    8    9 2
  16   10   11 1
  17   10   33 1
  18   10   34 1
  19   11   12 1
  20   11   13 1
  21   11   35 1
  22   12   13 1
  23   12   36 1
  24   12   37 1
  25   13   38 1
  26   13   39 1
  27   14   15 1
  28   15   16 1
  29   15   40 1
  30   15   41 1
  31   16   17 1
  32   16   22 1
  33   16   21 1
  34   17   18 1
  35   17   42 1
  36   17   43 1
  37   18   19 1
  38   18   44 1
  39   18   45 1
  40   19   20 1
  41   19   23 1
  42   19   46 1
  43   20   21 1
  44   20   47 1
  45   20   48 1
  46   21   49 1
  47   21   50 1
  48   22   51 1
  49   22   52 1
  50   22   53 1
  51   23   24 2
  52   23   25 1
  53   25   26 1
  54   25   54 1
  55   25   55 1
  56   26   56 1
  57   27   28 1
  58   27   29 1
  59   27   30 1

#	End of record

