#	Name: ASD01883410
#	Creating user name:	WinNT
#	Creation time:	15. 06. 2019 19:46

#	Modifying user name:	WinNT
#	Modification time:	15. 06. 2019 19:46

#	Program:	/corina/corina34_cracker 3.40 0067  02.08.2006

@<TRIPOS>MOLECULE
ASD01883410
  57   59    0    0    0
SMALL
NO_CHARGES


@<TRIPOS>ATOM
   1 N1            -0.0162     1.3418     0.0094 N.am    
   2 C2             0.0021    -0.0041     0.0020 C.2     
   3 C3            -1.2147    -0.7262     0.0102 C.2     
   4 C4            -2.4239    -0.0108     0.0261 C.2     
   5 C5            -2.3777     1.3956     0.0332 C.2     
   6 C6            -1.1861     2.0320     0.0299 C.2     
   7 O7             1.0658    -0.6002    -0.0122 O.2     
   8 C8            -1.2137    -2.1582     0.0021 C.1     
   9 N9            -1.2130    -3.2942    -0.0044 N.1     
  10 C10            1.2510     2.0769     0.0013 C.3     
  11 C11            1.6783     2.3406    -1.4440 C.3     
  12 C12            3.0017     3.1084    -1.4525 C.3     
  13 C13            4.1046     2.2302    -0.8581 C.3     
  14 C14           -4.8833     0.0867     0.0506 C.3     
  15 C15           -6.0051    -0.7627    -0.5533 C.3     
  16 C16           -7.3224     0.0126    -0.4777 C.3     
  17 N17           -7.6250     0.3306     0.9236 N.3     
  18 C18           -6.5849     1.1849     1.5108 C.3     
  19 C19           -5.2456     0.4446     1.4946 C.3     
  20 C20           -8.8786     0.9196     1.0413 C.ar    
  21 N21           -3.6309    -0.6732     0.0341 N.pl3   
  22 C22            3.3660     3.4808    -2.8911 C.3     
  23 C23           -9.3486     1.2953     2.2954 C.ar    
  24 C24          -10.5978     1.8809     2.3979 C.ar    
  25 C25          -11.3374     2.0716     1.2385 C.ar    
  26 C26          -10.8091     1.6744     0.0263 C.ar    
  27 N27           -9.6124     1.1229    -0.0421 N.ar    
  28 C28          -12.7033     2.7051     1.3026 C.3     
  29 F29          -12.5805     4.0924     1.1703 F       
  30 F30          -13.4979     2.2063     0.2648 F       
  31 F31          -13.2994     2.4048     2.5320 F       
  32 H32           -3.2946     1.9661     0.0450 H       
  33 H33           -1.1631     3.1117     0.0354 H       
  34 H34            1.1236     3.0263     0.5214 H       
  35 H35            2.0167     1.4867     0.5046 H       
  36 H36            1.8057     1.3912    -1.9642 H       
  37 H37            0.9126     2.9308    -1.9474 H       
  38 H38            2.8992     4.0157    -0.8572 H       
  39 H39            4.2071     1.3229    -1.4534 H       
  40 H40            5.0474     2.7772    -0.8641 H       
  41 H41            3.8451     1.9649     0.1668 H       
  42 H42           -4.7632     0.9996    -0.5328 H       
  43 H43           -5.7729    -0.9849    -1.5948 H       
  44 H44           -6.0981    -1.6936     0.0061 H       
  45 H45           -7.2332     0.9368    -1.0487 H       
  46 H46           -8.1259    -0.5951    -0.8939 H       
  47 H47           -6.4992     2.1036     0.9305 H       
  48 H48           -6.8528     1.4286     2.5389 H       
  49 H49           -5.3267    -0.4673     2.0862 H       
  50 H50           -4.4708     1.0849     1.9162 H       
  51 H51           -3.6520    -1.6429     0.0288 H       
  52 H52            2.5803     4.1064    -3.3145 H       
  53 H53            4.3089     4.0277    -2.8971 H       
  54 H54            3.4685     2.5735    -3.4864 H       
  55 H55           -8.7467     1.1319     3.1770 H       
  56 H56          -10.9890     2.1826     3.3583 H       
  57 H57          -11.3812     1.8205    -0.8780 H       
@<TRIPOS>BOND
   1    1    2 am
   2    1   10 1
   3    1    6 1
   4    2    3 1
   5    2    7 2
   6    3    4 2
   7    3    8 1
   8    4    5 1
   9    4   21 1
  10    5    6 2
  11    5   32 1
  12    6   33 1
  13    8    9 3
  14   10   11 1
  15   10   34 1
  16   10   35 1
  17   11   12 1
  18   11   36 1
  19   11   37 1
  20   12   13 1
  21   12   22 1
  22   12   38 1
  23   13   39 1
  24   13   40 1
  25   13   41 1
  26   14   15 1
  27   14   21 1
  28   14   19 1
  29   14   42 1
  30   15   16 1
  31   15   43 1
  32   15   44 1
  33   16   17 1
  34   16   45 1
  35   16   46 1
  36   17   18 1
  37   17   20 1
  38   18   19 1
  39   18   47 1
  40   18   48 1
  41   19   49 1
  42   19   50 1
  43   20   23 ar
  44   20   27 ar
  45   21   51 1
  46   22   52 1
  47   22   53 1
  48   22   54 1
  49   23   24 ar
  50   23   55 1
  51   24   25 ar
  52   24   56 1
  53   25   26 ar
  54   25   28 1
  55   26   27 ar
  56   26   57 1
  57   28   29 1
  58   28   30 1
  59   28   31 1

#	End of record

