#	Name: ASD02448109
#	Creating user name:	WinNT
#	Creation time:	15. 06. 2019 20:21

#	Modifying user name:	WinNT
#	Modification time:	15. 06. 2019 20:21

#	Program:	/corina/corina34_cracker 3.40 0067  02.08.2006

@<TRIPOS>MOLECULE
ASD02448109
  84   90    0    0    0
SMALL
NO_CHARGES


@<TRIPOS>ATOM
   1 C1            -0.0093     1.3526     0.0412 C.ar    
   2 C2             0.0091    -0.0275     0.0179 C.ar    
   3 C3             1.2205    -0.7057     0.0111 C.ar    
   4 C4             2.4138     0.0038     0.0272 C.ar    
   5 C5             2.3962     1.3839     0.0500 C.ar    
   6 C6             1.1844     2.0628     0.0573 C.ar    
   7 N7             1.1661     3.4606     0.0800 N.am    
   8 C8             0.1058     4.3572    -0.3985 C.3     
   9 C9             0.4730     5.7915    -0.1928 C.2     
  10 N10            1.6710     5.9885     0.3755 N.am    
  11 S11            2.3406     4.4920     0.6633 S.o2    
  12 O12           -0.2559     6.7056    -0.5153 O.2     
  13 O13            2.3959     4.3215     2.0730 O.2     
  14 O14            3.4652     4.3636    -0.1957 O.2     
  15 N15            1.2389    -2.1089    -0.0116 N.pl3   
  16 C16            0.6291    -2.9414     0.8847 C.2     
  17 C17            1.8614    -2.8914    -0.9324 C.2     
  18 N18            1.6594    -4.1427    -0.6288 N.2     
  19 C19            0.9033    -4.2133     0.4865 C.2     
  20 C20            0.4522    -5.4541     1.1578 C.ar    
  21 C21            0.8094    -6.6988     0.6360 C.ar    
  22 C22           -0.3252    -5.3781     2.3149 C.ar    
  23 C23           -0.7434    -6.5258     2.9371 C.ar    
  24 C24           -0.3910    -7.7731     2.4123 C.ar    
  25 C25            0.3921    -7.8480     1.2561 C.ar    
  26 C26            2.6555    -2.3933    -2.1124 C.3     
  27 C27            1.7734    -2.3610    -3.3338 C.ar    
  28 C28            0.9806    -1.2551    -3.5822 C.ar    
  29 C29            1.7639    -3.4350    -4.2055 C.ar    
  30 C30            0.9583    -3.4105    -5.3259 C.ar    
  31 C31            0.1537    -2.3013    -5.5782 C.ar    
  32 C32            0.1712    -1.2200    -4.6996 C.ar    
  33 C33           -0.7140    -2.2691    -6.7815 C.ar    
  34 C34           -1.5187    -1.1598    -7.0339 C.ar    
  35 C35           -0.7229    -3.3455    -7.6662 C.ar    
  36 C36           -1.5320    -3.3103    -8.7838 C.ar    
  37 C37           -2.3327    -2.2088    -9.0267 C.ar    
  38 C38           -2.3239    -1.1352    -8.1545 C.ar    
  39 C39           -3.2133    -2.1757   -10.2492 C.3     
  40 C40           -4.6758    -2.0400    -9.8208 C.3     
  41 C41           -5.5698    -2.0064   -11.0620 C.3     
  42 C42           -5.1820    -0.8132   -11.9376 C.3     
  43 C43           -3.7195    -0.9488   -12.3660 C.3     
  44 C44           -2.8255    -0.9825   -11.1248 C.3     
  45 C45           -0.8401    -9.0086     3.0807 C.2     
  46 O46           -1.5167    -8.9430     4.0878 O.2     
  47 O47           -0.5002   -10.2103     2.5744 O.3     
  48 C48           -0.9773   -11.3836     3.2844 C.3     
  49 H49           -0.9517     1.8802     0.0424 H       
  50 H50           -0.9189    -0.5798     0.0054 H       
  51 H51            3.3559    -0.5242     0.0223 H       
  52 H52            3.3245     1.9357     0.0629 H       
  53 H53           -0.0592     4.1798    -1.4612 H       
  54 H54           -0.8148     4.1431     0.1444 H       
  55 H55            2.0729     6.8464     0.5837 H       
  56 H56            0.0435    -2.6468     1.7430 H       
  57 H57            1.4145    -6.7564    -0.2567 H       
  58 H58           -0.5970    -4.4146     2.7203 H       
  59 H59           -1.3445    -6.4667     3.8325 H       
  60 H60            0.6647    -8.8108     0.8497 H       
  61 H61            3.0245    -1.3890    -1.9041 H       
  62 H62            3.4987    -3.0606    -2.2906 H       
  63 H63            0.9947    -0.4177    -2.9004 H       
  64 H64            2.3882    -4.2941    -4.0091 H       
  65 H65            0.9519    -4.2495    -6.0060 H       
  66 H66           -0.4508    -0.3579    -4.8902 H       
  67 H67           -1.5125    -0.3211    -6.3536 H       
  68 H68           -0.0976    -4.2057    -7.4780 H       
  69 H69           -1.5397    -4.1441    -9.4702 H       
  70 H70           -2.9513    -0.2779    -8.3487 H       
  71 H71           -3.0845    -3.0985   -10.8148 H       
  72 H72           -4.9520    -2.8901    -9.1970 H       
  73 H73           -4.8046    -1.1172    -9.2551 H       
  74 H74           -5.4410    -2.9292   -11.6276 H       
  75 H75           -6.6117    -1.9097   -10.7567 H       
  76 H76           -5.8189    -0.7892   -12.8218 H       
  77 H77           -5.3108     0.1097   -11.3720 H       
  78 H78           -3.5907    -1.8716   -12.9317 H       
  79 H79           -3.4433    -0.0988   -12.9898 H       
  80 H80           -2.9543    -0.0597   -10.5592 H       
  81 H81           -1.7836    -1.0791   -11.4300 H       
  82 H82           -2.0670   -11.3744     3.3105 H       
  83 H83           -0.6337   -12.2826     2.7728 H       
  84 H84           -0.5894   -11.3745     4.3031 H       
@<TRIPOS>BOND
   1    1    2 ar
   2    1    6 ar
   3    1   49 1
   4    2    3 ar
   5    2   50 1
   6    3    4 ar
   7    3   15 1
   8    4    5 ar
   9    4   51 1
  10    5    6 ar
  11    5   52 1
  12    6    7 1
  13    7    8 1
  14    7   11 am
  15    8    9 1
  16    8   53 1
  17    8   54 1
  18    9   10 am
  19    9   12 2
  20   10   11 am
  21   10   55 1
  22   11   13 2
  23   11   14 2
  24   15   16 1
  25   15   17 1
  26   16   19 2
  27   16   56 1
  28   17   18 2
  29   17   26 1
  30   18   19 1
  31   19   20 1
  32   20   21 ar
  33   20   22 ar
  34   21   25 ar
  35   21   57 1
  36   22   23 ar
  37   22   58 1
  38   23   24 ar
  39   23   59 1
  40   24   25 ar
  41   24   45 1
  42   25   60 1
  43   26   27 1
  44   26   61 1
  45   26   62 1
  46   27   28 ar
  47   27   29 ar
  48   28   32 ar
  49   28   63 1
  50   29   30 ar
  51   29   64 1
  52   30   31 ar
  53   30   65 1
  54   31   32 ar
  55   31   33 1
  56   32   66 1
  57   33   34 ar
  58   33   35 ar
  59   34   38 ar
  60   34   67 1
  61   35   36 ar
  62   35   68 1
  63   36   37 ar
  64   36   69 1
  65   37   39 1
  66   37   38 ar
  67   38   70 1
  68   39   40 1
  69   39   44 1
  70   39   71 1
  71   40   41 1
  72   40   72 1
  73   40   73 1
  74   41   42 1
  75   41   74 1
  76   41   75 1
  77   42   43 1
  78   42   76 1
  79   42   77 1
  80   43   44 1
  81   43   78 1
  82   43   79 1
  83   44   80 1
  84   44   81 1
  85   45   46 2
  86   45   47 1
  87   47   48 1
  88   48   82 1
  89   48   83 1
  90   48   84 1

#	End of record

