#	Name: ASD00461054
#	Creating user name:	WinNT
#	Creation time:	15. 06. 2019 18:36

#	Modifying user name:	WinNT
#	Modification time:	15. 06. 2019 18:36

#	Program:	/corina/corina34_cracker 3.40 0067  02.08.2006

@<TRIPOS>MOLECULE
ASD00461054
  56   59    0    0    0
SMALL
NO_CHARGES


@<TRIPOS>ATOM
   1 C1            -0.6855    -0.0500    -0.9122 C.ar    
   2 C2            -0.8686    -0.9890     0.1167 C.ar    
   3 C3            -0.0871    -2.1029     0.1589 C.ar    
   4 C4             0.8945    -2.3274    -0.8041 C.ar    
   5 C5             1.1007    -1.4395    -1.8151 C.ar    
   6 C6             0.3129    -0.2787    -1.8922 C.ar    
   7 C7             0.4959     0.6607    -2.9215 C.ar    
   8 C8            -0.2862     1.7735    -2.9644 C.ar    
   9 C9            -1.2687     1.9978    -2.0015 C.ar    
  10 C10           -1.4766     1.1089    -0.9922 C.ar    
  11 C11           -2.5444     1.3697     0.0388 C.3     
  12 N12           -3.5760     2.2440    -0.5350 N.3     
  13 C13           -1.9201     2.0501     1.2588 C.3     
  14 C14           -4.6228     1.4568    -1.2002 C.3     
  15 C15           -5.3903     2.3506    -2.1764 C.3     
  16 C16           -6.4806     1.5307    -2.8692 C.3     
  17 C17           -7.4455     0.9753    -1.8197 C.3     
  18 C18           -6.6780     0.0814    -0.8436 C.3     
  19 C19           -5.5877     0.9013    -0.1507 C.3     
  20 N20           -4.4664     2.8824    -3.1812 N.am    
  21 C21           -4.7517     4.0373    -3.8147 C.2     
  22 C22           -3.8197     4.5738    -4.8284 C.ar    
  23 O23           -5.7756     4.6376    -3.5523 O.2     
  24 C24           -4.1125     5.7699    -5.4863 C.ar    
  25 C25           -3.2390     6.2655    -6.4313 C.ar    
  26 C26           -2.0731     5.5792    -6.7282 C.ar    
  27 C27           -1.7772     4.3921    -6.0788 C.ar    
  28 C28           -2.6401     3.8895    -5.1278 C.ar    
  29 Cl29          -0.9786     6.2091    -7.9194 Cl      
  30 H30           -1.6251    -0.8279     0.8704 H       
  31 H31           -0.2300    -2.8231     0.9509 H       
  32 H32            1.5012    -3.2191    -0.7473 H       
  33 H33            1.8658    -1.6263    -2.5540 H       
  34 H34            1.2536     0.5004    -3.6742 H       
  35 H35           -0.1432     2.4939    -3.7562 H       
  36 H36           -1.8758     2.8892    -2.0587 H       
  37 H37           -2.9960     0.4248     0.3412 H       
  38 H38           -3.9710     2.8482     0.1700 H       
  39 H39           -1.3966     2.9525     0.9432 H       
  40 H40           -2.7042     2.3142     1.9684 H       
  41 H41           -1.2148     1.3682     1.7338 H       
  42 H42           -4.1653     0.6316    -1.7460 H       
  43 H43           -5.8478     3.1758    -1.6306 H       
  44 H44           -7.0274     2.1675    -3.5646 H       
  45 H45           -6.0231     0.7055    -3.4150 H       
  46 H46           -7.9030     1.8004    -1.2740 H       
  47 H47           -8.2222     0.3911    -2.3133 H       
  48 H48           -7.3654    -0.3143    -0.0959 H       
  49 H49           -6.2205    -0.7437    -1.3894 H       
  50 H50           -5.0409     0.2646     0.5447 H       
  51 H51           -6.0452     1.7265     0.3951 H       
  52 H52           -3.6494     2.4034    -3.3906 H       
  53 H53           -5.0215     6.3057    -5.2559 H       
  54 H54           -3.4646     7.1905    -6.9411 H       
  55 H55           -0.8668     3.8612    -6.3147 H       
  56 H56           -2.4082     2.9640    -4.6219 H       
@<TRIPOS>BOND
   1    1    2 ar
   2    1    6 ar
   3    1   10 ar
   4    2    3 ar
   5    2   30 1
   6    3    4 ar
   7    3   31 1
   8    4    5 ar
   9    4   32 1
  10    5    6 ar
  11    5   33 1
  12    6    7 ar
  13    7    8 ar
  14    7   34 1
  15    8    9 ar
  16    8   35 1
  17    9   10 ar
  18    9   36 1
  19   10   11 1
  20   11   12 1
  21   11   13 1
  22   11   37 1
  23   12   14 1
  24   12   38 1
  25   13   39 1
  26   13   40 1
  27   13   41 1
  28   14   15 1
  29   14   19 1
  30   14   42 1
  31   15   16 1
  32   15   20 1
  33   15   43 1
  34   16   17 1
  35   16   44 1
  36   16   45 1
  37   17   18 1
  38   17   46 1
  39   17   47 1
  40   18   19 1
  41   18   48 1
  42   18   49 1
  43   19   50 1
  44   19   51 1
  45   20   21 am
  46   20   52 1
  47   21   22 1
  48   21   23 2
  49   22   24 ar
  50   22   28 ar
  51   24   25 ar
  52   24   53 1
  53   25   26 ar
  54   25   54 1
  55   26   27 ar
  56   26   29 1
  57   27   28 ar
  58   27   55 1
  59   28   56 1

#	End of record

