#	Name: ASD01917451
#	Creating user name:	WinNT
#	Creation time:	15. 06. 2019 20:09

#	Modifying user name:	WinNT
#	Modification time:	15. 06. 2019 20:09

#	Program:	/corina/corina34_cracker 3.40 0067  02.08.2006

@<TRIPOS>MOLECULE
ASD01917451
  47   51    0    0    0
SMALL
NO_CHARGES


@<TRIPOS>ATOM
   1 C1            -0.0171     1.4095     0.0098 C.ar    
   2 C2             0.0021    -0.0041     0.0020 C.ar    
   3 C3            -1.1917    -0.7252     0.0066 C.ar    
   4 C4            -2.3849    -0.0630     0.0173 C.ar    
   5 C5            -2.4217     1.3383     0.0250 C.ar    
   6 C6            -1.2419     2.0756     0.0193 C.ar    
   7 N7             1.1587     2.0861     0.0022 N.2     
   8 C8             2.3039     1.4743    -0.0206 C.2     
   9 N9             2.4096     0.1109    -0.0259 N.am    
  10 C10            1.3122    -0.6723    -0.0130 C.2     
  11 O11            1.4023    -1.8863    -0.0136 O.2     
  12 C12           -3.7229     2.0373     0.0361 C.2     
  13 N13           -3.9066     3.3390     0.0437 N.2     
  14 N14           -5.1682     3.5918     0.0522 N.2     
  15 C15           -5.8393     2.4618     0.0505 C.2     
  16 O16           -4.9399     1.4576     0.0343 O.3     
  17 C17           -7.3099     2.3184     0.0559 C.ar    
  18 N18           -7.8541     1.1065     0.0443 N.ar    
  19 C19           -9.1598     0.9364     0.0486 C.ar    
  20 C20          -10.0179     2.0215     0.0655 C.ar    
  21 C21           -9.4922     3.3059     0.0780 C.ar    
  22 C22           -8.1167     3.4570     0.0789 C.ar    
  23 C23            3.5846     2.2794    -0.0526 C.3     
  24 C24            4.1963     2.1872    -1.4482 C.3     
  25 C25            5.1087     0.9793    -1.5694 C.3     
  26 C26            4.3472    -0.3293    -1.4436 C.3     
  27 C27            3.7506    -0.4861    -0.0464 C.3     
  28 C28            5.8068     1.0188    -2.9303 C.3     
  29 H29           -1.1719    -1.8050     0.0013 H       
  30 H30           -3.3083    -0.6231     0.0194 H       
  31 H31           -1.2745     3.1551     0.0262 H       
  32 H32           -9.5665    -0.0640     0.0385 H       
  33 H33          -11.0873     1.8704     0.0685 H       
  34 H34          -10.1422     4.1683     0.0909 H       
  35 H35           -7.6738     4.4419     0.0889 H       
  36 H36            3.3662     3.3213     0.1816 H       
  37 H37            4.2854     1.8789     0.6798 H       
  38 H38            3.3964     2.1060    -2.1841 H       
  39 H39            4.7721     3.0912    -1.6462 H       
  40 H40            5.8639     1.0261    -0.7848 H       
  41 H41            3.5435    -0.3476    -2.1797 H       
  42 H42            5.0272    -1.1589    -1.6373 H       
  43 H43            4.3861     0.0205     0.6800 H       
  44 H44            3.6820    -1.5448     0.2038 H       
  45 H45            6.3942     1.9334    -3.0109 H       
  46 H46            6.4644     0.1549    -3.0265 H       
  47 H47            5.0590     0.9963    -3.7230 H       
@<TRIPOS>BOND
   1    1    2 ar
   2    1    7 1
   3    1    6 ar
   4    2    3 ar
   5    2   10 1
   6    3    4 ar
   7    3   29 1
   8    4    5 ar
   9    4   30 1
  10    5    6 ar
  11    5   12 1
  12    6   31 1
  13    7    8 2
  14    8    9 1
  15    8   23 1
  16    9   10 am
  17    9   27 1
  18   10   11 2
  19   12   13 2
  20   12   16 1
  21   13   14 1
  22   14   15 2
  23   15   16 1
  24   15   17 1
  25   17   18 ar
  26   17   22 ar
  27   18   19 ar
  28   19   20 ar
  29   19   32 1
  30   20   21 ar
  31   20   33 1
  32   21   22 ar
  33   21   34 1
  34   22   35 1
  35   23   24 1
  36   23   36 1
  37   23   37 1
  38   24   25 1
  39   24   38 1
  40   24   39 1
  41   25   26 1
  42   25   28 1
  43   25   40 1
  44   26   27 1
  45   26   41 1
  46   26   42 1
  47   27   43 1
  48   27   44 1
  49   28   45 1
  50   28   46 1
  51   28   47 1

#	End of record

