#	Name: ASD01911768
#	Creating user name:	WinNT
#	Creation time:	15. 06. 2019 19:58

#	Modifying user name:	WinNT
#	Modification time:	15. 06. 2019 19:58

#	Program:	/corina/corina34_cracker 3.40 0067  02.08.2006

@<TRIPOS>MOLECULE
ASD01911768
  41   43    0    0    0
SMALL
NO_CHARGES


@<TRIPOS>ATOM
   1 N1            -0.0178     1.4648     0.0101 N.3     
   2 C2             0.0021    -0.0041     0.0020 C.3     
   3 C3             0.4850    -0.4925    -1.3394 C.2     
   4 C4             1.7583    -0.7349    -1.6740 C.2     
   5 S5            -0.5303    -0.8501    -2.7349 S.3     
   6 C6             0.9029    -1.2954    -3.6577 C.2     
   7 N7             1.9576    -1.1561    -2.9000 N.2     
   8 C8             0.9098    -1.7432    -5.0179 C.1     
   9 C9             0.9154    -2.1104    -6.1330 C.1     
  10 C10            0.9223    -2.5582    -7.4931 C.ar    
  11 C11            2.1291    -2.8836    -8.1195 C.ar    
  12 C12            2.1276    -3.3146    -9.4294 C.ar    
  13 C13            0.9356    -3.4254   -10.1237 C.ar    
  14 C14           -0.2630    -3.1047    -9.5106 C.ar    
  15 C15           -0.2782    -2.6778    -8.1994 C.ar    
  16 C16           -0.6486     1.9795     1.2449 C.3     
  17 C17            1.3614     2.0159    -0.0001 C.3     
  18 C18            1.1708     3.4584     0.5322 C.3     
  19 C19            0.0779     3.2867     1.6121 C.3     
  20 C20           -2.1317     2.2600     0.9946 C.3     
  21 C21           -0.4948     0.9581     2.3735 C.3     
  22 H22            0.6733    -0.3626     0.7824 H       
  23 H23           -1.0036    -0.3821     0.1858 H       
  24 H24            2.5713    -0.5922    -0.9776 H       
  25 H25            3.0601    -2.7973    -7.5789 H       
  26 H26            3.0590    -3.5660    -9.9148 H       
  27 H27            0.9408    -3.7635   -11.1494 H       
  28 H28           -1.1891    -3.1933   -10.0590 H       
  29 H29           -1.2143    -2.4282    -7.7221 H       
  30 H30            2.0094     1.4434     0.6636 H       
  31 H31            1.7627     2.0297    -1.0135 H       
  32 H32            2.0945     3.8316     0.9743 H       
  33 H33            0.8271     4.1205    -0.2625 H       
  34 H34           -0.6167     4.1263     1.5842 H       
  35 H35            0.5317     3.2028     2.5996 H       
  36 H36           -2.6301     1.3385     0.6938 H       
  37 H37           -2.5891     2.6388     1.9087 H       
  38 H38           -2.2325     3.0027     0.2032 H       
  39 H39            0.5641     0.7783     2.5590 H       
  40 H40           -0.9619     1.3445     3.2794 H       
  41 H41           -0.9771     0.0238     2.0863 H       
@<TRIPOS>BOND
   1    1    2 1
   2    1   17 1
   3    1   16 1
   4    2    3 1
   5    2   22 1
   6    2   23 1
   7    3    4 2
   8    3    5 1
   9    4    7 1
  10    4   24 1
  11    5    6 1
  12    6    7 2
  13    6    8 1
  14    8    9 3
  15    9   10 1
  16   10   11 ar
  17   10   15 ar
  18   11   12 ar
  19   11   25 1
  20   12   13 ar
  21   12   26 1
  22   13   14 ar
  23   13   27 1
  24   14   15 ar
  25   14   28 1
  26   15   29 1
  27   16   20 1
  28   16   21 1
  29   16   19 1
  30   17   18 1
  31   17   30 1
  32   17   31 1
  33   18   19 1
  34   18   32 1
  35   18   33 1
  36   19   34 1
  37   19   35 1
  38   20   36 1
  39   20   37 1
  40   20   38 1
  41   21   39 1
  42   21   40 1
  43   21   41 1

#	End of record

