#	Name: ASD03331705
#	Creating user name:	WinNT
#	Creation time:	15. 06. 2019 20:39

#	Modifying user name:	WinNT
#	Modification time:	15. 06. 2019 20:39

#	Program:	/corina/corina34_cracker 3.40 0067  02.08.2006

@<TRIPOS>MOLECULE
ASD03331705
  54   56    0    0    0
SMALL
NO_CHARGES


@<TRIPOS>ATOM
   1 C1             0.2786     1.4941     0.1345 C.3     
   2 N2             0.2005     0.0275     0.0803 N.3     
   3 C3             0.6016    -0.4782    -1.2449 C.3     
   4 C4             1.9175     0.1601    -1.6084 C.2     
   5 N5             2.4256     1.2513    -0.9781 N.pl3   
   6 C6             1.7474     1.9368     0.1257 C.3     
   7 C7             2.8038    -0.1978    -2.5708 C.2     
   8 N8             3.8397     0.6705    -2.5180 N.2     
   9 C9             3.6177     1.5438    -1.5612 C.2     
  10 C10            4.5146     2.6580    -1.1828 C.ar    
  11 C11            2.6636    -1.3286    -3.5053 C.2     
  12 O12            1.6798    -2.0419    -3.4535 O.2     
  13 N13            3.6254    -1.5724    -4.4174 N.am    
  14 C14            3.4860    -2.6965    -5.3464 C.3     
  15 C15            2.6557    -2.2595    -6.5548 C.3     
  16 C16            4.8507    -3.1388    -5.8081 C.2     
  17 N17            5.0522    -4.4161    -6.1883 N.am    
  18 O18            5.7676    -2.3455    -5.8375 O.2     
  19 C19            6.4001    -4.8729    -6.5356 C.3     
  20 C20            3.2906    -1.0200    -7.1886 C.3     
  21 C21            2.6141    -3.3928    -7.5818 C.3     
  22 C22            1.2320    -1.9285    -6.1026 C.3     
  23 C23            5.5446     3.0490    -2.0382 C.ar    
  24 C24            6.3784     4.0899    -1.6791 C.ar    
  25 C25            6.1929     4.7441    -0.4731 C.ar    
  26 C26            5.1731     4.3598     0.3790 C.ar    
  27 C27            4.3299     3.3256     0.0285 C.ar    
  28 Cl28           7.6616     4.5784    -2.7414 Cl      
  29 H29           -0.2323     1.9164    -0.7309 H       
  30 H30           -0.2015     1.8491     1.0464 H       
  31 H31            0.7566    -0.3914     0.8107 H       
  32 H32            0.7157    -1.5616    -1.2068 H       
  33 H33           -0.1536    -0.2125    -1.9847 H       
  34 H34            1.8056     3.0154    -0.0201 H       
  35 H35            2.2184     1.6670     1.0710 H       
  36 H36            4.4100    -1.0035    -4.4587 H       
  37 H37            2.9869    -3.5243    -4.8427 H       
  38 H38            4.3048    -5.0328    -6.2319 H       
  39 H39            7.0591    -4.7468    -5.6766 H       
  40 H40            6.3660    -5.9257    -6.8159 H       
  41 H41            6.7781    -4.2862    -7.3728 H       
  42 H42            4.3048    -1.2558    -7.5107 H       
  43 H43            2.6990    -0.7087    -8.0495 H       
  44 H44            3.3202    -0.2126    -6.4569 H       
  45 H45            2.2577    -4.3046    -7.1025 H       
  46 H46            1.9399    -3.1222    -8.3944 H       
  47 H47            3.6149    -3.5590    -7.9802 H       
  48 H48            1.2616    -1.1211    -5.3710 H       
  49 H49            0.6404    -1.6171    -6.9635 H       
  50 H50            0.7797    -2.8115    -5.6511 H       
  51 H51            5.6900     2.5389    -2.9789 H       
  52 H52            6.8473     5.5575    -0.1963 H       
  53 H53            5.0336     4.8737     1.3186 H       
  54 H54            3.5340     3.0270     0.6947 H       
@<TRIPOS>BOND
   1    1    2 1
   2    1    6 1
   3    1   29 1
   4    1   30 1
   5    2    3 1
   6    2   31 1
   7    3    4 1
   8    3   32 1
   9    3   33 1
  10    4    5 1
  11    4    7 2
  12    5    6 1
  13    5    9 1
  14    6   34 1
  15    6   35 1
  16    7    8 1
  17    7   11 1
  18    8    9 2
  19    9   10 1
  20   10   23 ar
  21   10   27 ar
  22   11   12 2
  23   11   13 am
  24   13   14 1
  25   13   36 1
  26   14   15 1
  27   14   16 1
  28   14   37 1
  29   15   20 1
  30   15   21 1
  31   15   22 1
  32   16   17 am
  33   16   18 2
  34   17   19 1
  35   17   38 1
  36   19   39 1
  37   19   40 1
  38   19   41 1
  39   20   42 1
  40   20   43 1
  41   20   44 1
  42   21   45 1
  43   21   46 1
  44   21   47 1
  45   22   48 1
  46   22   49 1
  47   22   50 1
  48   23   24 ar
  49   23   51 1
  50   24   25 ar
  51   24   28 1
  52   25   26 ar
  53   25   52 1
  54   26   27 ar
  55   26   53 1
  56   27   54 1

#	End of record

