#	Name: ASD01001114
#	Creating user name:	WinNT
#	Creation time:	15. 06. 2019 18:55

#	Modifying user name:	WinNT
#	Modification time:	15. 06. 2019 18:55

#	Program:	/corina/corina34_cracker 3.40 0067  02.08.2006

@<TRIPOS>MOLECULE
ASD01001114
  45   47    0    0    0
SMALL
NO_CHARGES


@<TRIPOS>ATOM
   1 C1             0.0462     1.2738     0.0914 C.2     
   2 C2             0.0385    -0.0639     0.0621 C.2     
   3 C3            -1.3067    -0.6093     0.0521 C.2     
   4 C4            -2.2805     0.3501     0.0748 C.2     
   5 S5            -1.5917     1.9068     0.1005 S.3     
   6 N6            -3.6413     0.0910     0.0708 N.am    
   7 C7            -4.5216     1.1113     0.0948 C.2     
   8 C8            -1.5927    -2.0466     0.0203 C.2     
   9 O9            -1.6171    -2.6854     1.0561 O.2     
  10 N10           -1.8286    -2.6609    -1.1559 N.am    
  11 C11           -2.0025    -4.1149    -1.2010 C.3     
  12 C12           -1.9112    -1.8747    -2.3893 C.3     
  13 C13           -3.4605    -4.4639    -0.8954 C.3     
  14 C14           -0.5478    -1.8705    -3.0837 C.3     
  15 C15           -5.9619     0.8372     0.0905 C.2     
  16 O16           -4.1210     2.2602     0.1199 O.2     
  17 C17            1.3038     2.1214     0.1079 C.3     
  18 C18            2.4890     1.2357     0.5018 C.3     
  19 C19            2.4809    -0.0254    -0.3673 C.3     
  20 C20            1.3013    -0.9103     0.0417 C.3     
  21 C21           -6.9530     1.7639     0.1125 C.2     
  22 N22           -8.1607     1.2581     0.1028 N.2     
  23 C23           -8.2654    -0.0316     0.0742 C.2     
  24 S24           -6.7165    -0.7547     0.0483 S.3     
  25 H25           -3.9607    -0.8247     0.0508 H       
  26 H26           -1.7416    -4.4813    -2.1939 H       
  27 H27           -1.3541    -4.5815    -0.4595 H       
  28 H28           -2.6553    -2.3160    -3.0524 H       
  29 H29           -2.1998    -0.8514    -2.1492 H       
  30 H30           -4.1012    -4.0720    -1.6855 H       
  31 H31           -3.5712    -5.5469    -0.8415 H       
  32 H32           -3.7478    -4.0213     0.0583 H       
  33 H33            0.1769    -1.3493    -2.4582 H       
  34 H34           -0.2182    -2.8971    -3.2433 H       
  35 H35           -0.6309    -1.3621    -4.0442 H       
  36 H36            1.4747     2.5410    -0.8835 H       
  37 H37            1.1923     2.9268     0.8337 H       
  38 H38            3.4197     1.7809     0.3446 H       
  39 H39            2.4018     0.9557     1.5516 H       
  40 H40            2.3792     0.2553    -1.4156 H       
  41 H41            3.4131    -0.5721    -0.2245 H       
  42 H42            1.4807    -1.3223     1.0347 H       
  43 H43            1.1864    -1.7213    -0.6774 H       
  44 H44           -6.7621     2.8267     0.1366 H       
  45 H45           -9.1992    -0.5741     0.0636 H       
@<TRIPOS>BOND
   1    1    2 2
   2    1   17 1
   3    1    5 1
   4    2    3 1
   5    2   20 1
   6    3    4 2
   7    3    8 1
   8    4    5 1
   9    4    6 1
  10    6    7 am
  11    6   25 1
  12    7   15 1
  13    7   16 2
  14    8    9 2
  15    8   10 am
  16   10   11 1
  17   10   12 1
  18   11   13 1
  19   11   26 1
  20   11   27 1
  21   12   14 1
  22   12   28 1
  23   12   29 1
  24   13   30 1
  25   13   31 1
  26   13   32 1
  27   14   33 1
  28   14   34 1
  29   14   35 1
  30   15   21 2
  31   15   24 1
  32   17   18 1
  33   17   36 1
  34   17   37 1
  35   18   19 1
  36   18   38 1
  37   18   39 1
  38   19   20 1
  39   19   40 1
  40   19   41 1
  41   20   42 1
  42   20   43 1
  43   21   22 1
  44   21   44 1
  45   22   23 2
  46   23   24 1
  47   23   45 1

#	End of record

