#	Name: ASD01815967
#	Creating user name:	WinNT
#	Creation time:	15. 06. 2019 19:34

#	Modifying user name:	WinNT
#	Modification time:	15. 06. 2019 19:34

#	Program:	/corina/corina34_cracker 3.40 0067  02.08.2006

@<TRIPOS>MOLECULE
ASD01815967
  51   56    0    0    0
SMALL
NO_CHARGES


@<TRIPOS>ATOM
   1 C1            -0.0167     1.3813     0.0096 C.ar    
   2 C2             0.0021    -0.0041     0.0020 C.ar    
   3 C3             1.1984    -0.6909    -0.0131 C.ar    
   4 C4             2.4015     0.0059    -0.0209 C.ar    
   5 C5             2.3790     1.4106    -0.0132 C.ar    
   6 C6             1.1663     2.0916     0.0022 C.ar    
   7 N7             3.6053    -0.6772    -0.0356 N.pl3   
   8 C8             4.7970    -0.0586    -0.0433 C.2     
   9 C9             4.9000     1.3103    -0.0373 C.2     
  10 C10            3.6670     2.1301    -0.0217 C.2     
  11 C11            5.9971     2.2729    -0.0432 C.2     
  12 N12            5.4245     3.4960    -0.0323 N.am    
  13 N13            4.0323     3.3799    -0.0195 N.2     
  14 C14            6.1264     4.7082    -0.0333 C.ar    
  15 O15            7.1914     2.0229    -0.0548 O.2     
  16 C16            3.5779    -2.1419    -0.0427 C.3     
  17 C17            3.5552    -2.6371    -1.4659 C.ar    
  18 C18            4.7429    -2.8861    -2.1288 C.ar    
  19 C19            4.7253    -3.3395    -3.4333 C.ar    
  20 C20            3.5135    -3.5456    -4.0788 C.ar    
  21 C21            2.3226    -3.2951    -3.4104 C.ar    
  22 C22            2.3466    -2.8468    -2.1042 C.ar    
  23 C23            6.5546     5.2634    -1.2317 C.ar    
  24 C24            7.2466     6.4588    -1.2297 C.ar    
  25 C25            7.5142     7.1036    -0.0359 C.ar    
  26 C26            7.0900     6.5550     1.1603 C.ar    
  27 C27            6.3912     5.3614     1.1656 C.ar    
  28 F28            5.9763     4.8253     2.3342 F       
  29 N29            3.4923    -4.0053    -5.4030 N.pl3   
  30 C30            2.3873    -4.2463    -6.1443 C.2     
  31 C31            2.7937    -4.6753    -7.3616 C.2     
  32 C32            4.1927    -4.6976    -7.3656 C.2     
  33 N33            4.6123    -4.2906    -6.1946 N.2     
  34 H34           -0.9602     1.9068     0.0170 H       
  35 H35           -0.9289    -0.5516     0.0083 H       
  36 H36            1.2004    -1.7709    -0.0186 H       
  37 H37            1.1506     3.1715     0.0077 H       
  38 H38            5.6983    -0.6536    -0.0540 H       
  39 H39            4.4657    -2.5244     0.4609 H       
  40 H40            2.6861    -2.4912     0.4778 H       
  41 H41            5.6852    -2.7256    -1.6262 H       
  42 H42            5.6532    -3.5332    -3.9509 H       
  43 H43            1.3785    -3.4542    -3.9101 H       
  44 H44            1.4206    -2.6517    -1.5838 H       
  45 H45            6.3471     4.7607    -2.1648 H       
  46 H46            7.5796     6.8905    -2.1620 H       
  47 H47            8.0561     8.0378    -0.0379 H       
  48 H48            7.3009     7.0609     2.0909 H       
  49 H49            1.3642    -4.1197    -5.8223 H       
  50 H50            2.1515    -4.9517    -8.1848 H       
  51 H51            4.8186    -4.9951    -8.1939 H       
@<TRIPOS>BOND
   1    1    2 ar
   2    1    6 ar
   3    1   34 1
   4    2    3 ar
   5    2   35 1
   6    3    4 ar
   7    3   36 1
   8    4    5 ar
   9    4    7 1
  10    5    6 ar
  11    5   10 1
  12    6   37 1
  13    7    8 1
  14    7   16 1
  15    8    9 2
  16    8   38 1
  17    9   10 1
  18    9   11 1
  19   10   13 2
  20   11   12 am
  21   11   15 2
  22   12   13 1
  23   12   14 1
  24   14   23 ar
  25   14   27 ar
  26   16   17 1
  27   16   39 1
  28   16   40 1
  29   17   18 ar
  30   17   22 ar
  31   18   19 ar
  32   18   41 1
  33   19   20 ar
  34   19   42 1
  35   20   21 ar
  36   20   29 1
  37   21   22 ar
  38   21   43 1
  39   22   44 1
  40   23   24 ar
  41   23   45 1
  42   24   25 ar
  43   24   46 1
  44   25   26 ar
  45   25   47 1
  46   26   27 ar
  47   26   48 1
  48   27   28 1
  49   29   30 1
  50   29   33 1
  51   30   31 2
  52   30   49 1
  53   31   32 1
  54   31   50 1
  55   32   33 2
  56   32   51 1

#	End of record

