#	Name: ASD00451013
#	Creating user name:	WinNT
#	Creation time:	15. 06. 2019 18:36

#	Modifying user name:	WinNT
#	Modification time:	15. 06. 2019 18:36

#	Program:	/corina/corina34_cracker 3.40 0067  02.08.2006

@<TRIPOS>MOLECULE
ASD00451013
  45   48    0    0    0
SMALL
NO_CHARGES


@<TRIPOS>ATOM
   1 C1            -0.1154     1.5375     0.0336 C.ar    
   2 C2            -0.1926     0.1519     0.0180 C.ar    
   3 N3             1.1345     2.1707    -0.0098 N.am    
   4 C4            -1.2780     2.2969     0.0863 C.ar    
   5 C5            -1.4244    -0.4717     0.0598 C.ar    
   6 C6             2.1894     1.5422    -0.5653 C.2     
   7 C7            -2.5095     1.6719     0.1232 C.ar    
   8 C8            -2.5847     0.2863     0.1178 C.ar    
   9 O9             2.0756     0.3988    -0.9630 O.2     
  10 N10            3.3706     2.1811    -0.6800 N.am    
  11 O11           -3.7968    -0.3285     0.1537 O.3     
  12 C12            4.4980     1.4907    -1.1403 C.ar    
  13 C13           -4.1900    -0.8948     1.3236 C.ar    
  14 C14            5.5269     2.1796    -1.7684 C.ar    
  15 C15            4.5919     0.1163    -0.9642 C.ar    
  16 C16           -5.4574    -1.4564     1.4568 C.ar    
  17 C17           -3.3348    -0.9357     2.4225 C.ar    
  18 C18            6.6385     1.4960    -2.2212 C.ar    
  19 C19            5.7053    -0.5623    -1.4187 C.ar    
  20 N20           -6.5431    -1.5969     0.5948 N.am    
  21 C21           -5.8263    -2.0297     2.6740 C.ar    
  22 C22           -3.7703    -1.5203     3.5947 C.ar    
  23 C23            6.7270     0.1259    -2.0497 C.ar    
  24 C24           -7.5285    -2.2287     1.2611 C.2     
  25 N25           -7.1251    -2.4973     2.5168 N.am    
  26 N26           -4.9793    -2.0400     3.6922 N.ar    
  27 Cl27           8.1249    -0.7304    -2.6210 Cl      
  28 O28           -8.6194    -2.5083     0.8001 O.2     
  29 H29            1.2401     3.0612     0.3601 H       
  30 H30            3.4394     3.1194    -0.4436 H       
  31 H31           -6.5825    -1.2923    -0.3253 H       
  32 H32           -7.6512    -2.9467     3.1966 H       
  33 Cl33          -1.1830     4.0302     0.1064 Cl      
  34 C34            7.7556     2.2430    -2.9031 C.3     
  35 F35            7.4398     3.6048    -2.9592 F       
  36 F36            8.9416     2.0687    -2.1819 F       
  37 F37            7.9225     1.7492    -4.2014 F       
  38 H38            0.7105    -0.4388    -0.0271 H       
  39 H39           -1.4842    -1.5500     0.0470 H       
  40 H40           -3.4134     2.2616     0.1642 H       
  41 H41            5.4579     3.2489    -1.9032 H       
  42 H42            3.7950    -0.4212    -0.4719 H       
  43 H43           -2.3422    -0.5150     2.3580 H       
  44 H44            5.7788    -1.6311    -1.2821 H       
  45 H45           -3.1089    -1.5534     4.4479 H       
@<TRIPOS>BOND
   1    1    2 ar
   2    1    3 1
   3    1    4 ar
   4    2    5 ar
   5    2   38 1
   6    3   29 1
   7    3    6 am
   8    4   33 1
   9    4    7 ar
  10    5    8 ar
  11    5   39 1
  12    6    9 2
  13    6   10 am
  14    7    8 ar
  15    7   40 1
  16    8   11 1
  17   10   12 1
  18   10   30 1
  19   11   13 1
  20   12   14 ar
  21   12   15 ar
  22   13   16 ar
  23   13   17 ar
  24   14   18 ar
  25   14   41 1
  26   15   19 ar
  27   15   42 1
  28   16   20 1
  29   16   21 ar
  30   17   22 ar
  31   17   43 1
  32   18   23 ar
  33   18   34 1
  34   19   23 ar
  35   19   44 1
  36   20   31 1
  37   20   24 am
  38   21   26 ar
  39   21   25 1
  40   22   26 ar
  41   22   45 1
  42   23   27 1
  43   24   25 am
  44   24   28 2
  45   25   32 1
  46   34   35 1
  47   34   36 1
  48   34   37 1

#	End of record

