#	Name: ASD02030173
#	Creating user name:	WinNT
#	Creation time:	15. 06. 2019 20:14

#	Modifying user name:	WinNT
#	Modification time:	15. 06. 2019 20:14

#	Program:	/corina/corina34_cracker 3.40 0067  02.08.2006

@<TRIPOS>MOLECULE
ASD02030173
  52   55    0    0    0
SMALL
NO_CHARGES


@<TRIPOS>ATOM
   1 C1            -1.0224     1.1369    -1.1798 C.2     
   2 O2            -1.1501    -0.0716    -1.1476 O.2     
   3 N3             2.2372     1.9250    -2.3386 N.pl3   
   4 N4             1.3454     1.0797    -1.9508 N.2     
   5 C5             0.2413     1.7341    -1.6613 C.2     
   6 N6             0.4649     3.0427    -1.8814 N.2     
   7 C7             1.6990     3.1613    -2.3003 C.2     
   8 C8             3.5467     1.6133    -2.7285 C.ar    
   9 C9             3.9803     0.2943    -2.7176 C.ar    
  10 C10            5.2722    -0.0098    -3.1032 C.ar    
  11 C11            6.1329     0.9993    -3.4993 C.ar    
  12 C12            5.7031     2.3132    -3.5104 C.ar    
  13 C13            4.4110     2.6222    -3.1319 C.ar    
  14 Cl14           5.8160    -1.6584    -3.0902 Cl      
  15 N15           -2.0350     1.9323    -0.7819 N.am    
  16 C16           -3.3451     1.3609    -0.4398 C.3     
  17 C17           -3.7185     1.8062     0.9795 C.3     
  18 N18           -3.5322     3.2606     1.0796 N.am    
  19 C19           -2.2222     3.8321     0.7376 C.3     
  20 C20           -1.8471     3.3861    -0.6764 C.3     
  21 C21           -4.3985     1.8629    -1.4293 C.3     
  22 C22           -3.2695    -0.1662    -0.4956 C.3     
  23 C23           -4.5448     4.0560     1.4776 C.2     
  24 C24           -4.3716     5.5243     1.4869 C.ar    
  25 C25           -5.4008     6.3542     1.0393 C.ar    
  26 C26           -5.2327     7.7245     1.0511 C.ar    
  27 C27           -4.0461     8.2751     1.5058 C.ar    
  28 C28           -3.0228     7.4573     1.9501 C.ar    
  29 C29           -3.1807     6.0865     1.9487 C.ar    
  30 O30           -5.6004     3.5663     1.8289 O.2     
  31 Cl31          -6.5107     8.7591     0.4944 Cl      
  32 H32            2.1966     4.0822    -2.5665 H       
  33 H33            3.3090    -0.4930    -2.4079 H       
  34 H34            7.1422     0.7598    -3.7999 H       
  35 H35            6.3771     3.0985    -3.8193 H       
  36 H36            4.0748     3.6484    -3.1455 H       
  37 H37           -4.7605     1.5563     1.1791 H       
  38 H38           -3.0746     1.3044     1.7018 H       
  39 H39           -2.2760     4.9200     0.7773 H       
  40 H40           -1.4717     3.4744     1.4425 H       
  41 H41           -0.8042     3.6353    -0.8724 H       
  42 H42           -2.4884     3.8912    -1.3986 H       
  43 H43           -4.1230     1.5581    -2.4389 H       
  44 H44           -5.3690     1.4377    -1.1736 H       
  45 H45           -4.4539     2.9503    -1.3804 H       
  46 H46           -2.4852    -0.5160     0.1757 H       
  47 H47           -4.2261    -0.5888    -0.1881 H       
  48 H48           -3.0434    -0.4819    -1.5141 H       
  49 H49           -6.3263     5.9255     0.6842 H       
  50 H50           -3.9190     9.3476     1.5133 H       
  51 H51           -2.0996     7.8929     2.3028 H       
  52 H52           -2.3825     5.4497     2.3004 H       
@<TRIPOS>BOND
   1    1    2 2
   2    1    5 1
   3    1   15 am
   4    3    4 1
   5    3    7 1
   6    3    8 1
   7    4    5 2
   8    5    6 1
   9    6    7 2
  10    7   32 1
  11    8    9 ar
  12    8   13 ar
  13    9   10 ar
  14    9   33 1
  15   10   11 ar
  16   10   14 1
  17   11   12 ar
  18   11   34 1
  19   12   13 ar
  20   12   35 1
  21   13   36 1
  22   15   16 1
  23   15   20 1
  24   16   17 1
  25   16   21 1
  26   16   22 1
  27   17   18 1
  28   17   37 1
  29   17   38 1
  30   18   19 1
  31   18   23 am
  32   19   20 1
  33   19   39 1
  34   19   40 1
  35   20   41 1
  36   20   42 1
  37   21   43 1
  38   21   44 1
  39   21   45 1
  40   22   46 1
  41   22   47 1
  42   22   48 1
  43   23   24 1
  44   23   30 2
  45   24   25 ar
  46   24   29 ar
  47   25   26 ar
  48   25   49 1
  49   26   27 ar
  50   26   31 1
  51   27   28 ar
  52   27   50 1
  53   28   29 ar
  54   28   51 1
  55   29   52 1

#	End of record

