#	Name: ASD03240771
#	Creating user name:	WinNT
#	Creation time:	15. 06. 2019 20:35

#	Modifying user name:	WinNT
#	Modification time:	15. 06. 2019 20:35

#	Program:	/corina/corina34_cracker 3.40 0067  02.08.2006

@<TRIPOS>MOLECULE
ASD03240771
  74   80    0    0    0
SMALL
NO_CHARGES


@<TRIPOS>ATOM
   1 C1            -0.8905     2.9020    -0.9913 C.2     
   2 N2            -1.0869     1.5723    -1.0338 N.2     
   3 C3            -0.0952     0.7219    -0.9656 C.2     
   4 C4             1.2689     1.2305    -0.8393 C.ar    
   5 C5             1.4684     2.6271    -0.7953 C.ar    
   6 N6             0.3594     3.4473    -0.8741 N.pl3   
   7 C7             2.3700     0.3716    -0.7614 C.ar    
   8 C8             3.6336     0.9414    -0.6421 C.ar    
   9 C9             3.7532     2.3441    -0.6048 C.ar    
  10 N10            2.6867     3.1261    -0.6821 N.ar    
  11 N11            0.2200     4.8404    -0.8591 N.2     
  12 C12           -1.0528     5.1390    -0.9620 C.2     
  13 C13           -1.7860     3.9616    -1.0415 C.2     
  14 C14            4.8390     0.0827    -0.5548 C.ar    
  15 C15            4.8826    -0.9716     0.3562 C.ar    
  16 C16            6.0071    -1.7679     0.4326 C.ar    
  17 C17            7.0899    -1.5213    -0.3921 C.ar    
  18 C18            7.0526    -0.4762    -1.2977 C.ar    
  19 C19            5.9310     0.3228    -1.3874 C.ar    
  20 C20           -1.6271     6.5321    -0.9833 C.3     
  21 C21            5.0958     2.9560    -0.4780 C.ar    
  22 C22            5.3813     4.1584    -1.1249 C.ar    
  23 C23            6.6341     4.7235    -1.0029 C.ar    
  24 C24            7.6060     4.1002    -0.2408 C.ar    
  25 C25            7.3290     2.9076     0.4033 C.ar    
  26 C26            6.0782     2.3354     0.2937 C.ar    
  27 C27            8.9724     4.7227    -0.1121 C.3     
  28 N28            8.9916     5.6268     1.0456 N.3     
  29 C29           10.3595     6.0683     1.3459 C.3     
  30 C30           10.3603     6.8874     2.6386 C.3     
  31 C31            9.4386     8.0985     2.4703 C.3     
  32 C32            8.0317     7.6130     2.1104 C.3     
  33 C33            8.0984     6.7729     0.8331 C.3     
  34 C34            9.3884     8.8763     3.7600 C.2     
  35 N35            8.6343     9.9900     3.8464 N.am    
  36 O36           10.0267     8.5001     4.7203 O.2     
  37 C37            8.5098    10.6574     5.0699 C.ar    
  38 C38            9.5878    10.7160     5.9430 C.ar    
  39 C39            9.4613    11.3765     7.1516 C.ar    
  40 C40            8.2604    11.9787     7.4899 C.ar    
  41 C41            7.1866    11.9205     6.6215 C.ar    
  42 C42            7.3096    11.2673     5.4105 C.ar    
  43 F43           10.5090    11.4342     8.0026 F       
  44 H44           -0.2821    -0.3412    -1.0018 H       
  45 H45            2.2432    -0.7005    -0.7926 H       
  46 H46           -2.8596     3.8846    -1.1292 H       
  47 H47            4.0380    -1.1646     1.0011 H       
  48 H48            6.0419    -2.5849     1.1380 H       
  49 H49            7.9680    -2.1468    -0.3285 H       
  50 H50            7.9010    -0.2881    -1.9389 H       
  51 H51            5.9012     1.1357    -2.0979 H       
  52 H52           -1.6785     6.8882    -2.0122 H       
  53 H53           -2.6285     6.5189    -0.5530 H       
  54 H54           -0.9898     7.1968    -0.4001 H       
  55 H55            4.6235     4.6457    -1.7204 H       
  56 H56            6.8565     5.6542    -1.5036 H       
  57 H57            8.0918     2.4257     0.9968 H       
  58 H58            5.8617     1.4066     0.8005 H       
  59 H59            9.7171     3.9389     0.0266 H       
  60 H60            9.2018     5.2858    -1.0167 H       
  61 H61           11.0038     5.1975     1.4674 H       
  62 H62           10.7310     6.6831     0.5261 H       
  63 H63           10.0020     6.2690     3.4616 H       
  64 H64           11.3733     7.2281     2.8529 H       
  65 H65            9.8185     8.7373     1.6730 H       
  66 H66            7.6367     7.0060     2.9251 H       
  67 H67            7.3809     8.4721     1.9474 H       
  68 H68            8.4804     7.3844     0.0157 H       
  69 H69            7.1003     6.4138     0.5820 H       
  70 H70            8.1778    10.3288     3.0605 H       
  71 H71           10.5237    10.2461     5.6790 H       
  72 H72            8.1629    12.4941     8.4339 H       
  73 H73            6.2514    12.3902     6.8883 H       
  74 H74            6.4712    11.2268     4.7309 H       
@<TRIPOS>BOND
   1    1    2 1
   2    1    6 1
   3    1   13 2
   4    2    3 2
   5    3    4 1
   6    3   44 1
   7    4    5 ar
   8    4    7 ar
   9    5    6 1
  10    5   10 ar
  11    6   11 1
  12    7    8 ar
  13    7   45 1
  14    8    9 ar
  15    8   14 1
  16    9   10 ar
  17    9   21 1
  18   11   12 2
  19   12   13 1
  20   12   20 1
  21   13   46 1
  22   14   15 ar
  23   14   19 ar
  24   15   16 ar
  25   15   47 1
  26   16   17 ar
  27   16   48 1
  28   17   18 ar
  29   17   49 1
  30   18   19 ar
  31   18   50 1
  32   19   51 1
  33   20   52 1
  34   20   53 1
  35   20   54 1
  36   21   22 ar
  37   21   26 ar
  38   22   23 ar
  39   22   55 1
  40   23   24 ar
  41   23   56 1
  42   24   25 ar
  43   24   27 1
  44   25   26 ar
  45   25   57 1
  46   26   58 1
  47   27   28 1
  48   27   59 1
  49   27   60 1
  50   28   29 1
  51   28   33 1
  52   29   30 1
  53   29   61 1
  54   29   62 1
  55   30   31 1
  56   30   63 1
  57   30   64 1
  58   31   32 1
  59   31   34 1
  60   31   65 1
  61   32   33 1
  62   32   66 1
  63   32   67 1
  64   33   68 1
  65   33   69 1
  66   34   35 am
  67   34   36 2
  68   35   37 1
  69   35   70 1
  70   37   38 ar
  71   37   42 ar
  72   38   39 ar
  73   38   71 1
  74   39   40 ar
  75   39   43 1
  76   40   41 ar
  77   40   72 1
  78   41   42 ar
  79   41   73 1
  80   42   74 1

#	End of record

