#	Name: ASD01916422
#	Creating user name:	WinNT
#	Creation time:	15. 06. 2019 20:07

#	Modifying user name:	WinNT
#	Modification time:	15. 06. 2019 20:07

#	Program:	/corina/corina34_cracker 3.40 0067  02.08.2006

@<TRIPOS>MOLECULE
ASD01916422
  33   35    0    0    0
SMALL
NO_CHARGES


@<TRIPOS>ATOM
   1 N1            -0.0157     1.3091     0.0092 N.ar    
   2 C2             0.0021    -0.0041     0.0020 C.ar    
   3 C3             1.2125    -0.7011    -0.0128 C.ar    
   4 N4             2.3572    -0.0574    -0.0198 N.ar    
   5 C5             2.3656     1.2802    -0.0131 C.ar    
   6 C6             3.5735     1.9988    -0.0198 C.ar    
   7 C7             3.5490     3.3595    -0.0123 C.ar    
   8 C8             2.3413     4.0549     0.0019 C.ar    
   9 C9             1.1521     3.3931     0.0092 C.ar    
  10 C10            1.1369     1.9877     0.0019 C.ar    
  11 C11           -1.2974    -0.7672     0.0103 C.3     
  12 C12           -2.1448    -0.3183     1.2025 C.3     
  13 C13           -3.3595    -1.1461     1.2805 C.1     
  14 C14           -4.3283    -1.8063     1.3427 C.1     
  15 C15           -5.5099    -2.6116     1.4186 C.ar    
  16 C16           -6.4395    -2.3831     2.4339 C.ar    
  17 C17           -7.5761    -3.1696     2.4936 C.ar    
  18 C18           -7.7479    -4.1602     1.5364 C.ar    
  19 C19           -6.7867    -4.3324     0.5576 C.ar    
  20 N20           -5.7153    -3.5666     0.5189 N.ar    
  21 F21           -1.9932    -0.5162    -1.1771 F       
  22 H22            1.2069    -1.7811    -0.0183 H       
  23 H23            4.5170     1.4734    -0.0304 H       
  24 H24            4.4790     3.9084    -0.0171 H       
  25 H25            2.3493     5.1349     0.0076 H       
  26 H26            0.2241     3.9455     0.0209 H       
  27 H27           -1.0915    -1.8344     0.0922 H       
  28 H28           -1.5686    -0.4312     2.1209 H       
  29 H29           -2.4252     0.7273     1.0758 H       
  30 H30           -6.2739    -1.6036     3.1628 H       
  31 H31           -8.3132    -3.0166     3.2680 H       
  32 H32           -8.6244    -4.7909     1.5562 H       
  33 H33           -6.9179    -5.1025    -0.1881 H       
@<TRIPOS>BOND
   1    1    2 ar
   2    1   10 ar
   3    2    3 ar
   4    2   11 1
   5    3    4 ar
   6    3   22 1
   7    4    5 ar
   8    5    6 ar
   9    5   10 ar
  10    6    7 ar
  11    6   23 1
  12    7    8 ar
  13    7   24 1
  14    8    9 ar
  15    8   25 1
  16    9   10 ar
  17    9   26 1
  18   11   12 1
  19   11   21 1
  20   11   27 1
  21   12   13 1
  22   12   28 1
  23   12   29 1
  24   13   14 3
  25   14   15 1
  26   15   16 ar
  27   15   20 ar
  28   16   17 ar
  29   16   30 1
  30   17   18 ar
  31   17   31 1
  32   18   19 ar
  33   18   32 1
  34   19   20 ar
  35   19   33 1

#	End of record

