#	Name: ASD04882561
#	Creating user name:	WinNT
#	Creation time:	15. 06. 2019 20:55

#	Modifying user name:	WinNT
#	Modification time:	15. 06. 2019 20:55

#	Program:	/corina/corina34_cracker 3.40 0067  02.08.2006

@<TRIPOS>MOLECULE
ASD04882561
  80   85    0    0    0
SMALL
NO_CHARGES


@<TRIPOS>ATOM
   1 C1            -0.0215     1.4012    -0.0092 C.ar    
   2 C2            -0.0115     0.0036    -0.0052 C.ar    
   3 C3            -1.2094    -0.7019    -0.0160 C.ar    
   4 C4            -2.4097    -0.0268    -0.0310 C.ar    
   5 C5            -2.4267     1.3708    -0.0350 C.ar    
   6 C6            -1.2239     2.0825    -0.0185 C.ar    
   7 N7             1.1998    -0.6830     0.0090 N.3     
   8 C8             1.3075    -1.5362     1.2007 C.3     
   9 C9             1.3717    -1.4731    -1.2181 C.3     
  10 C10            2.7456    -2.1474    -1.1992 C.3     
  11 N11            2.8533    -3.0005    -0.0075 N.3     
  12 C12            2.6814    -2.2105     1.2196 C.3     
  13 C13           -3.7126     2.0937    -0.0516 C.2     
  14 O14           -3.7265     3.3096    -0.0551 O.2     
  15 N15           -4.8720     1.4065    -0.0628 N.am    
  16 N16            1.1866     2.1110     0.0021 N.am    
  17 C17            4.0710    -3.6908     0.0068 C.ar    
  18 C18            4.3781    -4.5586     1.0529 C.ar    
  19 C19            5.5933    -5.2200     1.0249 C.ar    
  20 C20            6.4603    -4.9989    -0.0367 C.ar    
  21 N21            6.1369    -4.1679    -1.0130 N.ar    
  22 C22            4.9852    -3.5243    -1.0232 C.ar    
  23 C23           -6.1489     2.1244    -0.0793 C.3     
  24 C24            1.2296     3.3600     0.5068 C.2     
  25 C25            2.5162     4.0732     0.6000 C.2     
  26 O26            0.2069     3.8985     0.8853 O.2     
  27 N27            3.7329     3.5991     0.2178 N.2     
  28 C28            4.6244     4.5145     0.4539 C.2     
  29 O29            4.0245     5.5887     0.9859 O.3     
  30 C30            2.7098     5.3324     1.0790 C.2     
  31 C31            6.0998     4.3882     0.1743 C.3     
  32 C32            6.7243     5.3956    -0.7932 C.3     
  33 C33            7.0165     5.4920     0.7055 C.3     
  34 C34           -7.3003     1.1169    -0.0895 C.3     
  35 C35           -8.6339     1.8667    -0.1067 C.3     
  36 N36           -9.7364     0.9020    -0.1165 N.am    
  37 C37          -10.3201     0.4060     0.9881 C.2     
  38 C38          -10.3497     0.3577    -1.3337 C.3     
  39 C39          -11.1261    -0.8977    -0.8781 C.3     
  40 C40          -11.4126    -0.5684     0.6065 C.3     
  41 O41          -10.0147     0.6967     2.1253 O.2     
  42 O42            7.6549    -5.6434    -0.0727 O.3     
  43 C43            8.5036    -5.3748    -1.1904 C.3     
  44 H44           -1.1986    -1.7819    -0.0129 H       
  45 H45           -3.3385    -0.5778    -0.0400 H       
  46 H46           -1.2340     3.1625    -0.0213 H       
  47 H47            1.1893    -0.9264     2.0964 H       
  48 H48            0.5287    -2.2984     1.1739 H       
  49 H49            0.5937    -2.2346    -1.2724 H       
  50 H50            1.3004    -0.8173    -2.0858 H       
  51 H51            2.8638    -2.7572    -2.0949 H       
  52 H52            3.5244    -1.3852    -1.1724 H       
  53 H53            3.4594    -1.4490     1.2739 H       
  54 H54            2.7527    -2.8662     2.0873 H       
  55 H55           -4.8609     0.4366    -0.0600 H       
  56 H56            1.9919     1.7035    -0.3534 H       
  57 H57            3.6843    -4.7110     1.8664 H       
  58 H58            5.8641    -5.8996     1.8194 H       
  59 H59            4.7555    -2.8535    -1.8378 H       
  60 H60           -6.2239     2.7528     0.8082 H       
  61 H61           -6.2037     2.7479    -0.9716 H       
  62 H62            1.9513     5.9965     1.4664 H       
  63 H63            6.4908     3.3708     0.1632 H       
  64 H64            7.5264     5.0410    -1.4406 H       
  65 H65            6.0679     6.1497    -1.2275 H       
  66 H66            6.5524     6.3095     1.2572 H       
  67 H67            8.0108     5.2009     1.0442 H       
  68 H68           -7.2254     0.4885    -0.9770 H       
  69 H69           -7.2455     0.4934     0.8029 H       
  70 H70           -8.7089     2.4951     0.7808 H       
  71 H71           -8.6887     2.4902    -0.9991 H       
  72 H72          -11.0331     1.0862    -1.7699 H       
  73 H73           -9.5791     0.0837    -2.0543 H       
  74 H74          -12.0549    -1.0065    -1.4381 H       
  75 H75          -10.5099    -1.7921    -0.9699 H       
  76 H76          -11.3500    -1.4698     1.2161 H       
  77 H77          -12.3925    -0.1027     0.7117 H       
  78 H78            7.9918    -5.6552    -2.1110 H       
  79 H79            8.7435    -4.3118    -1.2174 H       
  80 H80            9.4231    -5.9524    -1.0956 H       
@<TRIPOS>BOND
   1    1    2 ar
   2    1   16 1
   3    1    6 ar
   4    2    3 ar
   5    2    7 1
   6    3    4 ar
   7    3   44 1
   8    4    5 ar
   9    4   45 1
  10    5    6 ar
  11    5   13 1
  12    6   46 1
  13    7    8 1
  14    7    9 1
  15    8   12 1
  16    8   47 1
  17    8   48 1
  18    9   10 1
  19    9   49 1
  20    9   50 1
  21   10   11 1
  22   10   51 1
  23   10   52 1
  24   11   12 1
  25   11   17 1
  26   12   53 1
  27   12   54 1
  28   13   14 2
  29   13   15 am
  30   15   23 1
  31   15   55 1
  32   16   24 am
  33   16   56 1
  34   17   18 ar
  35   17   22 ar
  36   18   19 ar
  37   18   57 1
  38   19   20 ar
  39   19   58 1
  40   20   21 ar
  41   20   42 1
  42   21   22 ar
  43   22   59 1
  44   23   34 1
  45   23   60 1
  46   23   61 1
  47   24   25 1
  48   24   26 2
  49   25   27 1
  50   25   30 2
  51   27   28 2
  52   28   29 1
  53   28   31 1
  54   29   30 1
  55   30   62 1
  56   31   32 1
  57   31   33 1
  58   31   63 1
  59   32   33 1
  60   32   64 1
  61   32   65 1
  62   33   66 1
  63   33   67 1
  64   34   35 1
  65   34   68 1
  66   34   69 1
  67   35   36 1
  68   35   70 1
  69   35   71 1
  70   36   37 am
  71   36   38 1
  72   37   41 2
  73   37   40 1
  74   38   39 1
  75   38   72 1
  76   38   73 1
  77   39   40 1
  78   39   74 1
  79   39   75 1
  80   40   76 1
  81   40   77 1
  82   42   43 1
  83   43   78 1
  84   43   79 1
  85   43   80 1

#	End of record

