#	Name: ASD01913885
#	Creating user name:	WinNT
#	Creation time:	15. 06. 2019 20:02

#	Modifying user name:	WinNT
#	Modification time:	15. 06. 2019 20:02

#	Program:	/corina/corina34_cracker 3.40 0067  02.08.2006

@<TRIPOS>MOLECULE
ASD01913885
  42   44    0    0    0
SMALL
NO_CHARGES


@<TRIPOS>ATOM
   1 C1            -0.0173     1.4278     0.0109 C.ar    
   2 C2             0.0021    -0.0041     0.0027 C.1     
   3 C3             0.0180    -1.1779    -0.0040 C.1     
   4 C4             0.0374    -2.6098    -0.0122 C.ar    
   5 C5            -1.1618    -3.3381    -0.0105 C.ar    
   6 C6             0.1586    -5.3356    -0.0280 C.ar    
   7 N7             1.2718    -4.6188    -0.0356 N.ar    
   8 C8             1.2501    -3.3019    -0.0277 C.ar    
   9 C9            -1.0910    -4.7183    -0.0186 C.ar    
  10 C10            1.1810     2.1457     0.0092 C.ar    
  11 C11            1.1541     3.5271     0.0171 C.ar    
  12 C12           -1.2353     2.1133     0.0148 C.ar    
  13 C13           -0.0580     4.1988     0.0273 C.ar    
  14 C14           -1.2477     3.4923     0.0227 C.ar    
  15 N15            0.2374    -6.7271    -0.0375 N.am    
  16 C16            1.3662    -7.4398    -0.1473 C.2     
  17 N17            1.1752    -8.7655    -0.1307 N.am    
  18 C18           -0.2620    -9.0448     0.0076 C.3     
  19 C19           -0.9048    -7.6460     0.0779 C.3     
  20 C20            2.2303    -9.7766    -0.2338 C.3     
  21 O21            2.4647    -6.9296    -0.2530 O.2     
  22 F22           -2.2199    -5.4605    -0.0169 F       
  23 C23           -0.7781    -9.8183    -1.2074 C.3     
  24 C24           -0.5365    -9.8217     1.2968 C.3     
  25 F25            2.3114     4.2242     0.0155 F       
  26 H26           -2.1163    -2.8328    -0.0028 H       
  27 H27            2.1795    -2.7518    -0.0336 H       
  28 H28            2.1258     1.6225     0.0020 H       
  29 H29           -2.1652     1.5640     0.0112 H       
  30 H30           -0.0741     5.2786     0.0338 H       
  31 H31           -2.1887     4.0223     0.0303 H       
  32 H32           -1.4191    -7.5087     1.0291 H       
  33 H33           -1.5926    -7.4988    -0.7547 H       
  34 H34            3.1981    -9.2836    -0.3261 H       
  35 H35            2.2242   -10.4006     0.6598 H       
  36 H36            2.0538   -10.3977    -1.1119 H       
  37 H37           -0.2589   -10.7743    -1.2768 H       
  38 H38           -1.8485    -9.9932    -1.0989 H       
  39 H39           -0.5945    -9.2386    -2.1120 H       
  40 H40           -0.1832    -9.2443     2.1512 H       
  41 H41           -1.6079    -9.9965     1.3945 H       
  42 H42           -0.0139   -10.7776     1.2632 H       
@<TRIPOS>BOND
   1    1    2 1
   2    1   10 ar
   3    1   12 ar
   4    2    3 3
   5    3    4 1
   6    4    5 ar
   7    4    8 ar
   8    5    9 ar
   9    5   26 1
  10    6    7 ar
  11    6   15 1
  12    6    9 ar
  13    7    8 ar
  14    8   27 1
  15    9   22 1
  16   10   11 ar
  17   10   28 1
  18   11   13 ar
  19   11   25 1
  20   12   14 ar
  21   12   29 1
  22   13   14 ar
  23   13   30 1
  24   14   31 1
  25   15   16 am
  26   15   19 1
  27   16   17 am
  28   16   21 2
  29   17   18 1
  30   17   20 1
  31   18   19 1
  32   18   23 1
  33   18   24 1
  34   19   32 1
  35   19   33 1
  36   20   34 1
  37   20   35 1
  38   20   36 1
  39   23   37 1
  40   23   38 1
  41   23   39 1
  42   24   40 1
  43   24   41 1
  44   24   42 1

#	End of record

