#	Name: ASD01883667
#	Creating user name:	WinNT
#	Creation time:	15. 06. 2019 19:46

#	Modifying user name:	WinNT
#	Modification time:	15. 06. 2019 19:46

#	Program:	/corina/corina34_cracker 3.40 0067  02.08.2006

@<TRIPOS>MOLECULE
ASD01883667
  47   50    0    0    0
SMALL
NO_CHARGES


@<TRIPOS>ATOM
   1 C1            -0.8237    -0.0452     1.1321 C.2     
   2 C2             0.0021    -0.0041     0.0020 C.2     
   3 C3            -0.4076     0.7446    -1.1170 C.2     
   4 C4            -1.5742     1.4165    -1.1135 C.2     
   5 N5            -2.4097     1.4053    -0.0352 N.pl3   
   6 C6            -2.0877     0.6951     1.0923 C.2     
   7 C7            -3.6249     1.9989     0.2030 C.2     
   8 C8            -4.0020     1.6466     1.4486 C.2     
   9 N9            -3.0585     0.8551     1.9730 N.2     
  10 N10            1.2030    -0.6889    -0.0141 N.pl3   
  11 C11            1.2370    -2.1558     0.0877 C.3     
  12 C12            2.0969    -2.7033    -1.0563 C.3     
  13 N13            3.4117    -2.0485    -1.0331 N.3     
  14 C14            3.2915    -0.6035    -1.2687 C.3     
  15 C15            2.4801     0.0297    -0.1395 C.3     
  16 C16           -4.3926     2.8794    -0.7491 C.3     
  17 C17           -4.0747     4.3469    -0.4555 C.3     
  18 F18           -2.7030     4.5686    -0.6185 F       
  19 F19           -4.7874     5.1643    -1.3394 F       
  20 F20           -4.4430     4.6498     0.8597 F       
  21 C21            4.2719    -2.6304    -1.9480 C.ar    
  22 N22            5.5064    -2.1635    -2.0624 N.ar    
  23 C23            6.3537    -2.6970    -2.9271 C.ar    
  24 C24            5.9358    -3.7558    -3.7175 C.ar    
  25 C25            4.6375    -4.2195    -3.5720 C.ar    
  26 N26            3.8428    -3.6447    -2.6848 N.ar    
  27 C27            7.7561    -2.1596    -3.0513 C.3     
  28 C28           -0.4463    -0.7948     2.2924 C.1     
  29 N29           -0.1469    -1.3894     3.2129 N.1     
  30 H30            0.2241     0.7810    -1.9922 H       
  31 H31           -1.8567     1.9811    -1.9898 H       
  32 H32           -4.9147     1.9498     1.9400 H       
  33 H33            1.6717    -2.4464     1.0441 H       
  34 H34            0.2247    -2.5519     0.0069 H       
  35 H35            2.2241    -3.7788    -0.9331 H       
  36 H36            1.6068    -2.5013    -2.0087 H       
  37 H37            4.2850    -0.1561    -1.2996 H       
  38 H38            2.7847    -0.4307    -2.2181 H       
  39 H39            2.2910     1.0786    -0.3681 H       
  40 H40            3.0319    -0.0501     0.7971 H       
  41 H41           -4.1056     2.6434    -1.7738 H       
  42 H42           -5.4613     2.7067    -0.6221 H       
  43 H43            6.6070    -4.2097    -4.4317 H       
  44 H44            4.2806    -5.0428    -4.1730 H       
  45 H45            8.4115    -2.6918    -2.3619 H       
  46 H46            8.1105    -2.3015    -4.0723 H       
  47 H47            7.7606    -1.0968    -2.8095 H       
@<TRIPOS>BOND
   1    1    2 2
   2    1   28 1
   3    1    6 1
   4    2    3 1
   5    2   10 1
   6    3    4 2
   7    3   30 1
   8    4    5 1
   9    4   31 1
  10    5    6 1
  11    5    7 1
  12    6    9 2
  13    7    8 2
  14    7   16 1
  15    8    9 1
  16    8   32 1
  17   10   11 1
  18   10   15 1
  19   11   12 1
  20   11   33 1
  21   11   34 1
  22   12   13 1
  23   12   35 1
  24   12   36 1
  25   13   14 1
  26   13   21 1
  27   14   15 1
  28   14   37 1
  29   14   38 1
  30   15   39 1
  31   15   40 1
  32   16   17 1
  33   16   41 1
  34   16   42 1
  35   17   18 1
  36   17   19 1
  37   17   20 1
  38   21   22 ar
  39   21   26 ar
  40   22   23 ar
  41   23   24 ar
  42   23   27 1
  43   24   25 ar
  44   24   43 1
  45   25   26 ar
  46   25   44 1
  47   27   45 1
  48   27   46 1
  49   27   47 1
  50   28   29 3

#	End of record

