#	Name: ASD03081124
#	Creating user name:	WinNT
#	Creation time:	15. 06. 2019 20:27

#	Modifying user name:	WinNT
#	Modification time:	15. 06. 2019 20:27

#	Program:	/corina/corina34_cracker 3.40 0067  02.08.2006

@<TRIPOS>MOLECULE
ASD03081124
  25   27    0    0    0
SMALL
NO_CHARGES


@<TRIPOS>ATOM
   1 O1            -0.0144     1.2085     0.0087 O.3     
   2 N2             0.0021    -0.0041     0.0020 N.2     
   3 C3             1.2345    -0.4420    -0.0121 C.2     
   4 N4             2.0453     0.6365    -0.0141 N.2     
   5 C5             1.2411     1.6827    -0.0008 C.2     
   6 C6             3.0152    -2.2107    -0.0381 C.ar    
   7 C7             1.6625    -1.8640    -0.0238 C.ar    
   8 C8             0.7240    -2.9019    -0.0205 C.ar    
   9 C9             1.1984    -4.2026    -0.0315 C.ar    
  10 N10            2.4981    -4.4298    -0.0447 N.ar    
  11 N11            3.3630    -3.4823    -0.0478 N.ar    
  12 C12            1.6456     3.1047     0.0030 C.ar    
  13 C13            0.6763     4.1084     0.0182 C.ar    
  14 C14            1.0601     5.4361     0.0221 C.ar    
  15 C15            2.4042     5.7713     0.0106 C.ar    
  16 C16            3.3706     4.7789    -0.0045 C.ar    
  17 C17            2.9981     3.4480    -0.0027 C.ar    
  18 F18            4.6797     5.1127    -0.0161 F       
  19 F19            0.1227     6.4089     0.0368 F       
  20 H20            3.7727    -1.4409    -0.0456 H       
  21 H21           -0.3359    -2.6951    -0.0093 H       
  22 H22            0.5051    -5.0306    -0.0290 H       
  23 H23           -0.3718     3.8482     0.0265 H       
  24 H24            2.6997     6.8101     0.0130 H       
  25 H25            3.7524     2.6750    -0.0104 H       
@<TRIPOS>BOND
   1    1    2 1
   2    1    5 1
   3    2    3 2
   4    3    4 1
   5    3    7 1
   6    4    5 2
   7    5   12 1
   8    6    7 ar
   9    6   11 ar
  10    6   20 1
  11    7    8 ar
  12    8    9 ar
  13    8   21 1
  14    9   10 ar
  15    9   22 1
  16   10   11 ar
  17   12   13 ar
  18   12   17 ar
  19   13   14 ar
  20   13   23 1
  21   14   15 ar
  22   14   19 1
  23   15   16 ar
  24   15   24 1
  25   16   17 ar
  26   16   18 1
  27   17   25 1

#	End of record

