#	Name: ASD01410806
#	Creating user name:	WinNT
#	Creation time:	15. 06. 2019 19:18

#	Modifying user name:	WinNT
#	Modification time:	15. 06. 2019 19:18

#	Program:	/corina/corina34_cracker 3.40 0067  02.08.2006

@<TRIPOS>MOLECULE
ASD01410806
  54   55    0    0    0
SMALL
NO_CHARGES


@<TRIPOS>ATOM
   1 S1             0.1545     2.8431     2.4747 S.3     
   2 C2            -1.2885     2.8318     1.4654 C.2     
   3 N3            -1.4139     3.9988     0.8932 N.2     
   4 C4            -0.4891     4.8771     1.1787 C.2     
   5 C5             0.4686     4.4631     2.0234 C.2     
   6 C6            -2.2039     1.6920     1.2940 C.2     
   7 O7            -3.1746     1.7953     0.5685 O.2     
   8 N8            -1.9664     0.5338     1.9410 N.am    
   9 C9            -2.8633    -0.5225     1.8275 C.ar    
  10 C10           -4.2178    -0.3129     2.0345 C.ar    
  11 C11           -5.1070    -1.3710     1.9192 C.ar    
  12 C12           -4.6465    -2.6455     1.5964 C.ar    
  13 C13           -3.3165    -2.8682     1.3895 C.ar    
  14 C14           -2.4025    -1.8109     1.4956 C.ar    
  15 C15           -4.7235     1.0627     2.3850 C.3     
  16 O16           -6.4323    -1.1638     2.1222 O.3     
  17 C17           -7.2940    -2.2958     1.9880 C.3     
  18 C18           -8.7398    -1.8703     2.2515 C.3     
  19 O19           -8.8477    -1.3439     3.5756 O.3     
  20 C20          -10.1827    -1.3207     4.0849 C.3     
  21 O21           -9.1207    -0.8672     1.3076 O.3     
  22 C22          -10.5332    -0.6847     1.1916 C.3     
  23 C23           -0.9750    -2.0463     1.2685 C.2     
  24 O24           -0.1792    -1.1432     1.4219 O.2     
  25 C25           -0.4943    -3.4102     0.8445 C.3     
  26 C26           -0.4971     6.2669     0.5960 C.3     
  27 C27           -1.1764     7.2265     1.5751 C.3     
  28 C28            0.9418     6.7245     0.3489 C.3     
  29 H29            1.3034     5.0576     2.3639 H       
  30 H30           -1.1697     0.4371     2.4859 H       
  31 H31           -5.3471    -3.4629     1.5096 H       
  32 H32           -2.9681    -3.8595     1.1399 H       
  33 H33           -4.8100     1.6602     1.4775 H       
  34 H34           -5.7009     0.9804     2.8604 H       
  35 H35           -4.0252     1.5427     3.0708 H       
  36 H36           -7.2117    -2.6974     0.9780 H       
  37 H37           -7.0035    -3.0609     2.7080 H       
  38 H38           -9.3971    -2.7338     2.1491 H       
  39 H39          -10.7472    -0.5315     3.5885 H       
  40 H40          -10.6601    -2.2824     3.8968 H       
  41 H41          -10.1589    -1.1306     5.1579 H       
  42 H42          -10.7496    -0.0704     0.3176 H       
  43 H43          -11.0173    -1.6552     1.0825 H       
  44 H44          -10.9102    -0.1892     2.0863 H       
  45 H45           -0.4913    -3.4722    -0.2438 H       
  46 H46            0.5158    -3.5726     1.2204 H       
  47 H47           -1.1599    -4.1723     1.2500 H       
  48 H48           -1.0439     6.2624    -0.3468 H       
  49 H49           -0.6295     7.2310     2.5179 H       
  50 H50           -1.1821     8.2317     1.1536 H       
  51 H51           -2.2015     6.9005     1.7512 H       
  52 H52            1.4258     6.0409    -0.3486 H       
  53 H53            0.9361     7.7297    -0.0726 H       
  54 H54            1.4887     6.7290     1.2917 H       
@<TRIPOS>BOND
   1    1    2 1
   2    1    5 1
   3    2    3 2
   4    2    6 1
   5    3    4 1
   6    4    5 2
   7    4   26 1
   8    5   29 1
   9    6    7 2
  10    6    8 am
  11    8    9 1
  12    8   30 1
  13    9   10 ar
  14    9   14 ar
  15   10   11 ar
  16   10   15 1
  17   11   12 ar
  18   11   16 1
  19   12   13 ar
  20   12   31 1
  21   13   14 ar
  22   13   32 1
  23   14   23 1
  24   15   33 1
  25   15   34 1
  26   15   35 1
  27   16   17 1
  28   17   18 1
  29   17   36 1
  30   17   37 1
  31   18   19 1
  32   18   21 1
  33   18   38 1
  34   19   20 1
  35   20   39 1
  36   20   40 1
  37   20   41 1
  38   21   22 1
  39   22   42 1
  40   22   43 1
  41   22   44 1
  42   23   24 2
  43   23   25 1
  44   25   45 1
  45   25   46 1
  46   25   47 1
  47   26   27 1
  48   26   28 1
  49   26   48 1
  50   27   49 1
  51   27   50 1
  52   27   51 1
  53   28   52 1
  54   28   53 1
  55   28   54 1

#	End of record

