#	Name: ASD01915739
#	Creating user name:	WinNT
#	Creation time:	15. 06. 2019 20:06

#	Modifying user name:	WinNT
#	Modification time:	15. 06. 2019 20:06

#	Program:	/corina/corina34_cracker 3.40 0067  02.08.2006

@<TRIPOS>MOLECULE
ASD01915739
  43   46    0    0    0
SMALL
NO_CHARGES


@<TRIPOS>ATOM
   1 C1            -0.0042     1.4684     0.2346 C.2     
   2 N2             0.0661     0.1189    -0.0301 N.pl3   
   3 C3            -1.1431    -0.6639    -0.3126 C.3     
   4 C4            -2.3281    -0.0486     0.4299 C.3     
   5 N5            -2.4044     1.3988     0.2638 N.am    
   6 C6            -1.2934     2.1742     0.2859 C.2     
   7 C7             1.2763     1.9057     0.4253 C.2     
   8 C8             2.0758     0.7647     0.2733 C.2     
   9 N9             1.2863    -0.2506     0.0108 N.2     
  10 C10            3.5774     0.7128     0.3901 C.3     
  11 O11            4.0778     2.0187     0.6836 O.3     
  12 C12            5.4214     2.1468     0.8217 C.ar    
  13 O13           -1.3589     3.3874     0.3455 O.2     
  14 N14            6.1984     1.0852     0.6831 N.ar    
  15 C15            5.9684     3.3922     1.1017 C.ar    
  16 C16            7.3406     3.5094     1.2402 C.ar    
  17 C17            8.1204     2.3708     1.0929 C.ar    
  18 C18            7.5092     1.1655     0.8092 C.ar    
  19 C19           -3.6541     2.0003     0.0771 C.ar    
  20 C20           -4.5855     2.0028     1.1072 C.ar    
  21 C21           -3.9626     2.6005    -1.1366 C.ar    
  22 C22           -5.1965     3.1936    -1.3187 C.ar    
  23 C23           -6.1256     3.1903    -0.2920 C.ar    
  24 C24           -5.8182     2.5969     0.9209 C.ar    
  25 C25           -1.4204    -0.6503    -1.8172 C.3     
  26 F26           -7.3319     3.7714    -0.4720 F       
  27 H27           -0.9979    -1.6911     0.0219 H       
  28 H28           -3.2490    -0.4952     0.0550 H       
  29 H29           -2.2353    -0.2768     1.4917 H       
  30 H30            1.6016     2.9118     0.6451 H       
  31 H31            3.8560     0.0283     1.1913 H       
  32 H32            4.0031     0.3635    -0.5506 H       
  33 H33            5.3316     4.2578     1.2096 H       
  34 H34            7.7942     4.4652     1.4576 H       
  35 H35            9.1941     2.4278     1.1944 H       
  36 H36            8.1114     0.2765     0.6936 H       
  37 H37           -4.3461     1.5401     2.0533 H       
  38 H38           -3.2379     2.6039    -1.9374 H       
  39 H39           -5.4368     3.6605    -2.2625 H       
  40 H40           -6.5444     2.5952     1.7202 H       
  41 H41           -0.5734    -1.0866    -2.3466 H       
  42 H42           -2.3183    -1.2317    -2.0264 H       
  43 H43           -1.5669     0.3772    -2.1503 H       
@<TRIPOS>BOND
   1    1    2 1
   2    1    7 2
   3    1    6 1
   4    2    3 1
   5    2    9 1
   6    3    4 1
   7    3   25 1
   8    3   27 1
   9    4    5 1
  10    4   28 1
  11    4   29 1
  12    5    6 am
  13    5   19 1
  14    6   13 2
  15    7    8 1
  16    7   30 1
  17    8    9 2
  18    8   10 1
  19   10   11 1
  20   10   31 1
  21   10   32 1
  22   11   12 1
  23   12   14 ar
  24   12   15 ar
  25   14   18 ar
  26   15   16 ar
  27   15   33 1
  28   16   17 ar
  29   16   34 1
  30   17   18 ar
  31   17   35 1
  32   18   36 1
  33   19   20 ar
  34   19   21 ar
  35   20   24 ar
  36   20   37 1
  37   21   22 ar
  38   21   38 1
  39   22   23 ar
  40   22   39 1
  41   23   24 ar
  42   23   26 1
  43   24   40 1
  44   25   41 1
  45   25   42 1
  46   25   43 1

#	End of record

