#	Name: ASD02562052
#	Creating user name:	WinNT
#	Creation time:	15. 06. 2019 20:25

#	Modifying user name:	WinNT
#	Modification time:	15. 06. 2019 20:25

#	Program:	/corina/corina34_cracker 3.40 0067  02.08.2006

@<TRIPOS>MOLECULE
ASD02562052
  44   47    0    0    0
SMALL
NO_CHARGES


@<TRIPOS>ATOM
   1 C1             0.1365     1.3890     1.1086 C.2     
   2 C2             0.1575    -0.0172     1.0959 C.2     
   3 C3             1.2857    -0.6787     0.7696 C.2     
   4 N4             2.4261     0.0061     0.4457 N.pl3   
   5 C5             2.4358     1.3823     0.4490 C.2     
   6 C6             1.2600     2.0845     0.7896 C.2     
   7 C7             3.6781    -0.4087     0.0850 C.2     
   8 C8             4.4300     0.7280    -0.1256 C.2     
   9 N9             3.6441     1.7959     0.1044 N.2     
  10 N10            4.1118    -1.7284    -0.0444 N.3     
  11 C11            5.8540     0.7667    -0.5336 C.ar    
  12 C12            2.9883    -2.6664     0.0817 C.3     
  13 C13            3.3286    -3.9700    -0.6434 C.3     
  14 C14            2.1585    -4.9471    -0.5121 C.3     
  15 C15            1.9013    -5.2387     0.9677 C.3     
  16 C16            1.5610    -3.9351     1.6928 C.3     
  17 C17            2.7311    -2.9581     1.5614 C.3     
  18 C18            6.3099     1.7744    -1.3787 C.ar    
  19 C19            7.6514     1.8041    -1.7576 C.ar    
  20 C20            8.5281     0.8236    -1.2872 C.ar    
  21 C21            8.0680    -0.1730    -0.4495 C.ar    
  22 C22            6.7417    -0.2038    -0.0665 C.ar    
  23 C23            8.1290     2.8368    -2.6271 C.1     
  24 N24            8.5079     3.6560    -3.3168 N.1     
  25 H25           -0.7709     1.9148     1.3667 H       
  26 H26           -0.7351    -0.5699     1.3493 H       
  27 H27            1.2901    -1.7587     0.7639 H       
  28 H28            1.2527     3.1644     0.7960 H       
  29 H29            4.6004    -1.8645    -0.9166 H       
  30 H30            2.0956    -2.2260    -0.3624 H       
  31 H31            3.5119    -3.7622    -1.6976 H       
  32 H32            4.2213    -4.4104    -0.1993 H       
  33 H33            1.2658    -4.5066    -0.9562 H       
  34 H34            2.4009    -5.8758    -1.0287 H       
  35 H35            1.0677    -5.9348     1.0612 H       
  36 H36            2.7940    -5.6791     1.4117 H       
  37 H37            0.6683    -3.4947     1.2487 H       
  38 H38            1.3777    -4.1429     2.7470 H       
  39 H39            3.6238    -3.3985     2.0055 H       
  40 H40            2.4887    -2.0294     2.0780 H       
  41 H41            5.6275     2.5296    -1.7396 H       
  42 H42            9.5676     0.8448    -1.5795 H       
  43 H43            8.7495    -0.9293    -0.0889 H       
  44 H44            6.3884    -0.9861     0.5889 H       
@<TRIPOS>BOND
   1    1    2 1
   2    1    6 2
   3    1   25 1
   4    2    3 2
   5    2   26 1
   6    3    4 1
   7    3   27 1
   8    4    5 1
   9    4    7 1
  10    5    6 1
  11    5    9 2
  12    6   28 1
  13    7    8 2
  14    7   10 1
  15    8    9 1
  16    8   11 1
  17   10   12 1
  18   10   29 1
  19   11   18 ar
  20   11   22 ar
  21   12   13 1
  22   12   17 1
  23   12   30 1
  24   13   14 1
  25   13   31 1
  26   13   32 1
  27   14   15 1
  28   14   33 1
  29   14   34 1
  30   15   16 1
  31   15   35 1
  32   15   36 1
  33   16   17 1
  34   16   37 1
  35   16   38 1
  36   17   39 1
  37   17   40 1
  38   18   19 ar
  39   18   41 1
  40   19   20 ar
  41   19   23 1
  42   20   21 ar
  43   20   42 1
  44   21   22 ar
  45   21   43 1
  46   22   44 1
  47   23   24 3

#	End of record

