#	Name: ASD08150995
#	Creating user name:	WinNT
#	Creation time:	15. 06. 2019 21:16

#	Modifying user name:	WinNT
#	Modification time:	15. 06. 2019 21:16

#	Program:	/corina/corina34_cracker 3.40 0067  02.08.2006

@<TRIPOS>MOLECULE
ASD08150995
  25   26    0    0    0
SMALL
NO_CHARGES


@<TRIPOS>ATOM
   1 S1            -0.0211     1.7022     0.0114 S.3     
   2 C2             0.0021    -0.0041     0.0020 C.2     
   3 N3             1.1982    -0.4572    -0.0118 N.2     
   4 C4             2.2083     0.4336    -0.0167 C.ar    
   5 C5             1.7392     1.7517    -0.0051 C.ar    
   6 C6             3.6012     0.2145    -0.0308 C.ar    
   7 C7             4.4695     1.2781    -0.0330 C.ar    
   8 C8             3.9915     2.5807    -0.0214 C.ar    
   9 C9             2.6356     2.8181    -0.0080 C.ar    
  10 C10           -1.2321    -0.8688     0.0096 C.3     
  11 Br11           4.2764    -1.5518    -0.0461 Br      
  12 C12            5.9556     1.0284    -0.0475 C.3     
  13 C13            6.4248     0.8275    -1.4899 C.3     
  14 N14            6.6498     2.1790     0.5361 N.2     
  15 N15            7.7626     2.1449     0.6902 N.1     
  16 N16            8.8755     2.1109     0.8443 N.pl3   
  17 H17            4.6841     3.4094    -0.0232 H       
  18 H18            2.2661     3.8328     0.0010 H       
  19 H19           -2.1193    -0.2356     0.0214 H       
  20 H20           -1.2435    -1.4936    -0.8834 H       
  21 H21           -1.2263    -1.5025     0.8964 H       
  22 H22            6.1796     0.1350     0.5352 H       
  23 H23            6.2007     1.7210    -2.0727 H       
  24 H24            7.4997     0.6470    -1.5004 H       
  25 H25            5.9083    -0.0285    -1.9241 H       
@<TRIPOS>BOND
   1    1    2 1
   2    1    5 1
   3    2    3 2
   4    2   10 1
   5    3    4 1
   6    4    5 ar
   7    4    6 ar
   8    5    9 ar
   9    6    7 ar
  10    6   11 1
  11    7    8 ar
  12    7   12 1
  13    8    9 ar
  14    8   17 1
  15    9   18 1
  16   10   19 1
  17   10   20 1
  18   10   21 1
  19   12   13 1
  20   12   14 1
  21   12   22 1
  22   13   23 1
  23   13   24 1
  24   13   25 1
  25   14   15 2
  26   15   16 2

#	End of record

