#	Name: ASD01911691
#	Creating user name:	WinNT
#	Creation time:	15. 06. 2019 19:58

#	Modifying user name:	WinNT
#	Modification time:	15. 06. 2019 19:58

#	Program:	/corina/corina34_cracker 3.40 0067  02.08.2006

@<TRIPOS>MOLECULE
ASD01911691
  44   46    0    0    0
SMALL
NO_CHARGES


@<TRIPOS>ATOM
   1 N1            -0.1449     1.2143    -0.5551 N.am    
   2 C2             0.0021    -0.0041     0.0020 C.2     
   3 C3             1.2748    -0.7187    -0.1246 C.2     
   4 C4             1.4470    -2.0747    -0.0500 C.2     
   5 S5             2.8518     0.0159    -0.4072 S.3     
   6 C6             3.5963    -1.5802    -0.3909 C.2     
   7 N7             2.6740    -2.4890    -0.1928 N.2     
   8 C8             4.9923    -1.8438    -0.5711 C.1     
   9 C9             6.1367    -2.0599    -0.7188 C.1     
  10 C10            7.5327    -2.3234    -0.8990 C.ar    
  11 C11            8.0097    -3.6374    -0.8661 C.ar    
  12 C12            9.3552    -3.8832    -1.0409 C.ar    
  13 C13           10.2329    -2.8333    -1.2481 C.ar    
  14 C14            9.7684    -1.5301    -1.2820 C.ar    
  15 C15            8.4248    -1.2686    -1.1146 C.ar    
  16 O16           -0.9225    -0.5107     0.6103 O.2     
  17 C17            0.9925     1.8173    -1.2132 C.3     
  18 C18            1.8086     2.6426    -0.1880 C.3     
  19 C19            1.0717     3.8576     0.1921 C.3     
  20 C20           -0.2576     3.5932     0.8927 C.3     
  21 C21           -1.3340     3.3770    -0.1422 C.3     
  22 C22           -1.4621     1.8754    -0.4734 C.3     
  23 O23           -0.1417     2.4273     1.7108 O.3     
  24 C24           -0.6226     4.7956     1.7655 C.3     
  25 H25            0.6236    -2.7534     0.1160 H       
  26 H26            7.3261    -4.4576    -0.7038 H       
  27 H27            9.7252    -4.8975    -1.0157 H       
  28 H28           11.2857    -3.0321    -1.3836 H       
  29 H29           10.4595    -0.7160    -1.4437 H       
  30 H30            8.0638    -0.2511    -1.1412 H       
  31 H31            1.6242     1.0355    -1.6350 H       
  32 H32            0.6444     2.4724    -2.0118 H       
  33 H33            1.9891     2.0374     0.7004 H       
  34 H34            2.7643     2.9237    -0.6301 H       
  35 H35            1.7009     4.4504     0.8560 H       
  36 H36            0.8785     4.4410    -0.7081 H       
  37 H37           -2.2850     3.7446     0.2432 H       
  38 H38           -1.0782     3.9241    -1.0496 H       
  39 H39           -1.9790     1.7661    -1.4268 H       
  40 H40           -2.0516     1.3904     0.3046 H       
  41 H41           -0.9516     2.1991     2.1872 H       
  42 H42           -0.7119     5.6843     1.1407 H       
  43 H43           -1.5724     4.6064     2.2658 H       
  44 H44            0.1562     4.9527     2.5117 H       
@<TRIPOS>BOND
   1    1    2 am
   2    1   17 1
   3    1   22 1
   4    2    3 1
   5    2   16 2
   6    3    4 2
   7    3    5 1
   8    4    7 1
   9    4   25 1
  10    5    6 1
  11    6    7 2
  12    6    8 1
  13    8    9 3
  14    9   10 1
  15   10   11 ar
  16   10   15 ar
  17   11   12 ar
  18   11   26 1
  19   12   13 ar
  20   12   27 1
  21   13   14 ar
  22   13   28 1
  23   14   15 ar
  24   14   29 1
  25   15   30 1
  26   17   18 1
  27   17   31 1
  28   17   32 1
  29   18   19 1
  30   18   33 1
  31   18   34 1
  32   19   20 1
  33   19   35 1
  34   19   36 1
  35   20   21 1
  36   20   23 1
  37   20   24 1
  38   21   22 1
  39   21   37 1
  40   21   38 1
  41   22   39 1
  42   22   40 1
  43   23   41 1
  44   24   42 1
  45   24   43 1
  46   24   44 1

#	End of record

