#	Name: ASD08710102
#	Creating user name:	WinNT
#	Creation time:	15. 06. 2019 21:19

#	Modifying user name:	WinNT
#	Modification time:	15. 06. 2019 21:19

#	Program:	/corina/corina34_cracker 3.40 0067  02.08.2006

@<TRIPOS>MOLECULE
ASD08710102
  54   55    0    0    0
SMALL
NO_CHARGES


@<TRIPOS>ATOM
   1 N1             0.0785     1.3311     0.3995 N.am    
   2 C2             0.0774    -0.1272     0.2173 C.3     
   3 C3             0.8301    -0.4599    -1.0769 C.3     
   4 N4             2.1159     0.2519    -1.0686 N.am    
   5 C5             2.1170     1.7102    -0.8863 C.3     
   6 C6             1.3642     2.0429     0.4079 C.3     
   7 S7            -1.3440     2.1583     0.5853 S.o2    
   8 O8            -1.0841     3.4977     0.1881 O.2     
   9 O9            -2.3557     1.3547    -0.0062 O.2     
  10 C10           -1.6956     2.2104     2.3111 C.ar    
  11 C11           -1.2244     3.2573     3.0811 C.ar    
  12 C12           -1.5002     3.2981     4.4351 C.ar    
  13 C13           -2.2474     2.2923     5.0189 C.ar    
  14 C14           -2.7194     1.2459     4.2487 C.ar    
  15 C15           -2.4473     1.2073     2.8939 C.ar    
  16 C16           -2.5472     2.3363     6.4951 C.3     
  17 F17           -3.7443     3.0285     6.7074 F       
  18 F18           -2.6697     1.0317     6.9852 F       
  19 F19           -1.5060     2.9896     7.1631 F       
  20 C20            3.2733    -0.4207    -1.2248 C.2     
  21 O21            3.2693    -1.6355    -1.2673 O.2     
  22 C22            5.6920    -0.1269    -0.6815 C.ar    
  23 C23            4.5477     0.3189    -1.3446 C.ar    
  24 C24            4.6272     1.4781    -2.1255 C.ar    
  25 C25            5.8438     2.1331    -2.2050 C.ar    
  26 C26            6.9316     1.6267    -1.5172 C.ar    
  27 N27            6.8271     0.5315    -0.7885 N.ar    
  28 C28            8.2579     2.3372    -1.6013 C.3     
  29 C29            0.7767    -0.7935     1.4038 C.3     
  30 H30           -0.9493    -0.4862     0.1459 H       
  31 H31            1.0070    -1.5341    -1.1314 H       
  32 H32            0.2403    -0.1397    -1.9358 H       
  33 H33            3.1437     2.0692    -0.8150 H       
  34 H34            1.6188     2.1849    -1.7317 H       
  35 H35            1.1874     3.1171     0.4624 H       
  36 H36            1.9541     1.7227     1.2668 H       
  37 H37           -0.6406     4.0431     2.6250 H       
  38 H38           -1.1315     4.1156     5.0368 H       
  39 H39           -3.3029     0.4600     4.7049 H       
  40 H40           -2.8191     0.3917     2.2915 H       
  41 H41            5.6448    -1.0171    -0.0719 H       
  42 H42            3.7616     1.8513    -2.6525 H       
  43 H43            5.9427     3.0302    -2.7982 H       
  44 H44            8.3251     3.0769    -0.8035 H       
  45 H45            9.0655     1.6130    -1.4943 H       
  46 H46            8.3425     2.8356    -2.5670 H       
  47 H47            0.2488    -0.5432     2.3240 H       
  48 H48            0.7746    -1.8748     1.2664 H       
  49 H49            1.8049    -0.4372     1.4664 H       
  50 C50           15.0080    10.3238    12.1705 C.2     
  51 O51           15.0244     9.1156    12.1638 O.2     
  52 O52           16.1612    11.0107    12.1631 O.3     
  53 H53           14.0655    10.8510    12.1778 H       
  54 H54           16.0975    11.9756    12.1689 H       
@<TRIPOS>BOND
   1    1    2 1
   2    1    6 1
   3    1    7 am
   4    2    3 1
   5    2   29 1
   6    2   30 1
   7    3    4 1
   8    3   31 1
   9    3   32 1
  10    4    5 1
  11    4   20 am
  12    5    6 1
  13    5   33 1
  14    5   34 1
  15    6   35 1
  16    6   36 1
  17    7    8 2
  18    7    9 2
  19    7   10 1
  20   10   11 ar
  21   10   15 ar
  22   11   12 ar
  23   11   37 1
  24   12   13 ar
  25   12   38 1
  26   13   14 ar
  27   13   16 1
  28   14   15 ar
  29   14   39 1
  30   15   40 1
  31   16   17 1
  32   16   18 1
  33   16   19 1
  34   20   21 2
  35   20   23 1
  36   22   23 ar
  37   22   27 ar
  38   22   41 1
  39   23   24 ar
  40   24   25 ar
  41   24   42 1
  42   25   26 ar
  43   25   43 1
  44   26   27 ar
  45   26   28 1
  46   28   44 1
  47   28   45 1
  48   28   46 1
  49   29   47 1
  50   29   48 1
  51   29   49 1
  52   50   51 2
  53   50   52 1
  54   50   53 1
  55   52   54 1

#	End of record

