#	Name: ASD01881196
#	Creating user name:	WinNT
#	Creation time:	15. 06. 2019 19:42

#	Modifying user name:	WinNT
#	Modification time:	15. 06. 2019 19:42

#	Program:	/corina/corina34_cracker 3.40 0067  02.08.2006

@<TRIPOS>MOLECULE
ASD01881196
  52   54    0    0    0
SMALL
NO_CHARGES


@<TRIPOS>ATOM
   1 N1            -0.0159     1.3186     0.0093 N.ar    
   2 C2             0.0021    -0.0041     0.0020 C.ar    
   3 N3             1.1375    -0.6834    -0.0120 N.ar    
   4 C4             2.3047    -0.0573    -0.0198 C.ar    
   5 C5             2.3299     1.3247    -0.0131 C.ar    
   6 C6             1.1170     2.0112     0.0022 C.ar    
   7 C7             3.6386     2.0719    -0.0211 C.3     
   8 O8             4.7202     1.1381    -0.0355 O.3     
   9 C9             5.9767     1.6508    -0.0442 C.ar    
  10 C10            7.0757     0.7968    -0.0583 C.ar    
  11 C11            8.3463     1.3155    -0.0676 C.ar    
  12 C12            8.5459     2.7003    -0.0629 C.ar    
  13 C13            7.4383     3.5547    -0.0486 C.ar    
  14 C14            6.1642     3.0272    -0.0447 C.ar    
  15 C15            9.7180     0.6880    -0.0837 C.3     
  16 N16           10.6764     1.7991    -0.0875 N.am    
  17 C17            9.9956     2.9578    -0.0755 C.2     
  18 O18           10.5045     4.0621    -0.0754 O.2     
  19 Cl19           7.6672     5.2755    -0.0421 Cl      
  20 C20           -0.0148     5.5133     0.0299 C.3     
  21 C21           -1.3895     6.1848     0.0467 C.3     
  22 C22           -1.2146     7.7048     0.0522 C.3     
  23 O23            1.0942     3.3662     0.0088 O.3     
  24 C24           -0.1898     3.9934     0.0245 C.3     
  25 C25           12.6291     1.6283    -1.5502 C.3     
  26 C26           12.1354     1.6670    -0.1025 C.3     
  27 O27           -1.1716    -0.6802     0.0096 O.3     
  28 C28           -1.0983    -2.1073     0.0012 C.3     
  29 H29            3.2263    -0.6203    -0.0309 H       
  30 H30            3.6913     2.7028    -0.9084 H       
  31 H31            3.7073     2.6938     0.8715 H       
  32 H32            6.9287    -0.2731    -0.0617 H       
  33 H33            5.3090     3.6866    -0.0341 H       
  34 H34            9.8596     0.0740     0.8057 H       
  35 H35            9.8426     0.0825    -0.9815 H       
  36 H36            0.5283     5.8197    -0.8640 H       
  37 H37            0.5460     5.8113     0.9158 H       
  38 H38           -1.9503     5.8868    -0.8391 H       
  39 H39           -1.9327     5.8784     0.9407 H       
  40 H40           -0.6714     8.0112    -0.8418 H       
  41 H41           -2.1939     8.1832     0.0641 H       
  42 H42           -0.6538     8.0028     0.9381 H       
  43 H43           -0.7329     3.6869     0.9185 H       
  44 H44           -0.7506     3.6953    -0.8614 H       
  45 H45           13.7146     1.5301    -1.5613 H       
  46 H46           12.1820     0.7773    -2.0639 H       
  47 H47           12.3425     2.5500    -2.0566 H       
  48 H48           12.5825     2.5181     0.4112 H       
  49 H49           12.4220     0.7454     0.4039 H       
  50 H50           -2.1059    -2.5229     0.0086 H       
  51 H51           -0.5750    -2.4390    -0.8956 H       
  52 H52           -0.5580    -2.4485     0.8843 H       
@<TRIPOS>BOND
   1    1    2 ar
   2    1    6 ar
   3    2    3 ar
   4    2   27 1
   5    3    4 ar
   6    4    5 ar
   7    4   29 1
   8    5    6 ar
   9    5    7 1
  10    6   23 1
  11    7    8 1
  12    7   30 1
  13    7   31 1
  14    8    9 1
  15    9   10 ar
  16    9   14 ar
  17   10   11 ar
  18   10   32 1
  19   11   12 ar
  20   11   15 1
  21   12   13 ar
  22   12   17 1
  23   13   14 ar
  24   13   19 1
  25   14   33 1
  26   15   16 1
  27   15   34 1
  28   15   35 1
  29   16   17 am
  30   16   26 1
  31   17   18 2
  32   20   21 1
  33   20   24 1
  34   20   36 1
  35   20   37 1
  36   21   22 1
  37   21   38 1
  38   21   39 1
  39   22   40 1
  40   22   41 1
  41   22   42 1
  42   23   24 1
  43   24   43 1
  44   24   44 1
  45   25   26 1
  46   25   45 1
  47   25   46 1
  48   25   47 1
  49   26   48 1
  50   26   49 1
  51   27   28 1
  52   28   50 1
  53   28   51 1
  54   28   52 1

#	End of record

