#	Name: ASD09380001
#	Creating user name:	WinNT
#	Creation time:	15. 06. 2019 21:21

#	Modifying user name:	WinNT
#	Modification time:	15. 06. 2019 21:21

#	Program:	/corina/corina34_cracker 3.40 0067  02.08.2006

@<TRIPOS>MOLECULE
ASD09380001
  53   55    0    0    0
SMALL
NO_CHARGES


@<TRIPOS>ATOM
   1 C1            -0.0167     1.3790     0.0096 C.ar    
   2 C2             0.0021    -0.0041     0.0020 C.ar    
   3 C3            -1.1822    -0.7129     0.0095 C.ar    
   4 C4            -2.3981    -0.0326     0.0248 C.ar    
   5 C5            -2.4111     1.3606     0.0324 C.ar    
   6 C6            -1.2208     2.0593     0.0305 C.ar    
   7 C7            -3.6746    -0.7893     0.0324 C.ar    
   8 C8            -3.6616    -2.1824     0.0243 C.ar    
   9 C9            -4.8520    -2.8812     0.0315 C.ar    
  10 C10           -6.0561    -2.2009     0.0461 C.ar    
  11 C11           -6.0748    -0.8177     0.0537 C.ar    
  12 C12           -4.8907    -0.1090     0.0534 C.ar    
  13 C13           -7.3908    -0.0834     0.0687 C.3     
  14 O14           -7.7954     0.1415     1.4206 O.3     
  15 C15           -8.9704     0.7969     1.6120 C.ar    
  16 C16           -9.4238     1.0490     2.8987 C.ar    
  17 C17          -10.6186     1.7155     3.0906 C.ar    
  18 C18          -11.3623     2.1312     2.0017 C.ar    
  19 C19          -10.9128     1.8808     0.7183 C.ar    
  20 C20           -9.7157     1.2202     0.5211 C.ar    
  21 C21          -12.6653     2.8580     2.2140 C.3     
  22 C22          -13.8034     2.0630     1.5710 C.3     
  23 C23          -12.5890     4.1923     1.5968 C.1     
  24 C24          -12.5282     5.2564     1.1046 C.1     
  25 C25          -12.4520     6.5906     0.4875 C.3     
  26 C26          -15.1198     2.7246     1.8878 C.2     
  27 O27          -15.1451     3.7289     2.5590 O.2     
  28 O28          -16.2642     2.1981     1.4243 O.3     
  29 C29            1.2797     2.1474     0.0014 C.3     
  30 F30            1.6682     2.3923    -1.3201 F       
  31 F31            1.1047     3.3643     0.6691 F       
  32 F32            2.2695     1.3991     0.6474 F       
  33 H33            0.9451    -0.5303    -0.0102 H       
  34 H34           -1.1664    -1.7927     0.0032 H       
  35 H35           -3.3508     1.8929     0.0442 H       
  36 H36           -1.2297     3.1393     0.0364 H       
  37 H37           -2.7219    -2.7146     0.0122 H       
  38 H38           -4.8432    -3.9611     0.0252 H       
  39 H39           -6.9851    -2.7516     0.0513 H       
  40 H40           -4.9064     0.9709     0.0594 H       
  41 H41           -7.2787     0.8736    -0.4410 H       
  42 H42           -8.1460    -0.6808    -0.4421 H       
  43 H43           -8.8434     0.7242     3.7496 H       
  44 H44          -10.9721     1.9116     4.0921 H       
  45 H45          -11.4959     2.2059    -0.1306 H       
  46 H46           -9.3650     1.0248    -0.4815 H       
  47 H47          -12.8533     2.9622     3.2826 H       
  48 H48          -13.6617     2.0347     0.4906 H       
  49 H49          -13.8038     1.0464     1.9642 H       
  50 H50          -13.3944     7.1163     0.6410 H       
  51 H51          -11.6412     7.1570     0.9456 H       
  52 H52          -12.2640     6.4864    -0.5811 H       
  53 H53          -17.0835     2.6578     1.6536 H       
@<TRIPOS>BOND
   1    1    2 ar
   2    1   29 1
   3    1    6 ar
   4    2    3 ar
   5    2   33 1
   6    3    4 ar
   7    3   34 1
   8    4    5 ar
   9    4    7 1
  10    5    6 ar
  11    5   35 1
  12    6   36 1
  13    7    8 ar
  14    7   12 ar
  15    8    9 ar
  16    8   37 1
  17    9   10 ar
  18    9   38 1
  19   10   11 ar
  20   10   39 1
  21   11   12 ar
  22   11   13 1
  23   12   40 1
  24   13   14 1
  25   13   41 1
  26   13   42 1
  27   14   15 1
  28   15   16 ar
  29   15   20 ar
  30   16   17 ar
  31   16   43 1
  32   17   18 ar
  33   17   44 1
  34   18   19 ar
  35   18   21 1
  36   19   20 ar
  37   19   45 1
  38   20   46 1
  39   21   22 1
  40   21   23 1
  41   21   47 1
  42   22   26 1
  43   22   48 1
  44   22   49 1
  45   23   24 3
  46   24   25 1
  47   25   50 1
  48   25   51 1
  49   25   52 1
  50   26   27 2
  51   26   28 1
  52   28   53 1
  53   29   30 1
  54   29   31 1
  55   29   32 1

#	End of record

