#	Name: ASD08170103
#	Creating user name:	WinNT
#	Creation time:	15. 06. 2019 21:17

#	Modifying user name:	WinNT
#	Modification time:	15. 06. 2019 21:17

#	Program:	/corina/corina34_cracker 3.40 0067  02.08.2006

@<TRIPOS>MOLECULE
ASD08170103
  60   61    0    0    0
SMALL
NO_CHARGES


@<TRIPOS>ATOM
   1 C1            -0.0187     1.5258     0.0104 C.3     
   2 C2             0.0021    -0.0041     0.0020 C.3     
   3 C3             1.4167     2.0553    -0.0004 C.3     
   4 C4             1.3960     3.5852     0.0080 C.3     
   5 C5             2.8098     4.1068    -0.0027 C.2     
   6 C6            -1.4117    -0.5257     0.0127 C.2     
   7 S7             3.7994     4.4593     1.4143 S.3     
   8 C8             5.0770     4.9390     0.3786 C.2     
   9 N9             4.6867     4.8059    -0.8531 N.2     
  10 N10            3.5185     4.3715    -1.0541 N.2     
  11 S11           -2.3742    -0.8935     1.4445 S.3     
  12 N12           -2.1404    -0.7792    -1.0277 N.2     
  13 N13           -3.3061    -1.2119    -0.8091 N.2     
  14 C14           -3.6713    -1.3622     0.4283 C.2     
  15 N15           -4.9107    -1.8251     0.8572 N.am    
  16 C16           -5.8536    -2.1613    -0.0452 C.2     
  17 O17           -5.6213    -2.0602    -1.2312 O.2     
  18 N18            6.3249     5.3958     0.7887 N.am    
  19 C19            7.2495     5.7444    -0.1278 C.2     
  20 C20            8.6017     6.2394     0.3166 C.3     
  21 O21            6.9932     5.6598    -1.3102 O.2     
  22 C22           -7.1965    -2.6628     0.4196 C.3     
  23 C23           -8.0742    -2.9709    -0.7952 C.3     
  24 C24            9.2939     5.1562     1.1463 C.3     
  25 C25           -7.0070    -3.9353     1.2477 C.3     
  26 C26           -7.8718    -1.5915     1.2781 C.3     
  27 O27           -8.0488    -0.4030     0.5046 O.3     
  28 O28           -9.3476    -3.4465    -0.3545 O.3     
  29 C29            9.4547     6.5642    -0.9114 C.3     
  30 C30            8.4294     7.5003     1.1659 C.3     
  31 O31            7.7830     8.5120     0.3909 O.3     
  32 O32           10.7370     7.0336    -0.4900 O.3     
  33 H33           -0.5459     1.8868    -0.8726 H       
  34 H34           -0.5289     1.8773     0.9072 H       
  35 H35            0.5123    -0.3556    -0.8948 H       
  36 H36            0.5293    -0.3651     0.8851 H       
  37 H37            1.9439     1.6943     0.8826 H       
  38 H38            1.9269     1.7038    -0.8972 H       
  39 H39            0.8688     3.9463    -0.8751 H       
  40 H40            0.8858     3.9367     0.9048 H       
  41 H41           -5.0964    -1.9059     1.8058 H       
  42 H42            6.5298     5.4635     1.7344 H       
  43 H43           -8.2092    -2.0643    -1.3852 H       
  44 H44           -7.5931    -3.7341    -1.4068 H       
  45 H45            9.4166     4.2580     0.5413 H       
  46 H46           10.2720     5.5143     1.4677 H       
  47 H47            8.6862     4.9249     2.0211 H       
  48 H48           -6.3818    -3.7158     2.1131 H       
  49 H49           -7.9784    -4.2981     1.5838 H       
  50 H50           -6.5259    -4.6985     0.6361 H       
  51 H51           -8.8432    -1.9542     1.6142 H       
  52 H52           -7.2466    -1.3720     2.1435 H       
  53 H53           -8.4724     0.3205     0.9866 H       
  54 H54           -9.9573    -3.6621    -1.0735 H       
  55 H55            9.5774     5.6659    -1.5164 H       
  56 H56            8.9616     7.3359    -1.5025 H       
  57 H57            7.8218     7.2689     2.0407 H       
  58 H58            9.4075     7.8583     1.4873 H       
  59 H59            7.6408     9.3415     0.8671 H       
  60 H60           11.3320     7.2591    -1.2181 H       
@<TRIPOS>BOND
   1    1    2 1
   2    1    3 1
   3    1   33 1
   4    1   34 1
   5    2    6 1
   6    2   35 1
   7    2   36 1
   8    3    4 1
   9    3   37 1
  10    3   38 1
  11    4    5 1
  12    4   39 1
  13    4   40 1
  14    5    7 1
  15    5   10 2
  16    6   11 1
  17    6   12 2
  18    7    8 1
  19    8    9 2
  20    8   18 1
  21    9   10 1
  22   11   14 1
  23   12   13 1
  24   13   14 2
  25   14   15 1
  26   15   16 am
  27   15   41 1
  28   16   17 2
  29   16   22 1
  30   18   19 am
  31   18   42 1
  32   19   20 1
  33   19   21 2
  34   20   24 1
  35   20   29 1
  36   20   30 1
  37   22   23 1
  38   22   25 1
  39   22   26 1
  40   23   28 1
  41   23   43 1
  42   23   44 1
  43   24   45 1
  44   24   46 1
  45   24   47 1
  46   25   48 1
  47   25   49 1
  48   25   50 1
  49   26   27 1
  50   26   51 1
  51   26   52 1
  52   27   53 1
  53   28   54 1
  54   29   32 1
  55   29   55 1
  56   29   56 1
  57   30   31 1
  58   30   57 1
  59   30   58 1
  60   31   59 1
  61   32   60 1

#	End of record

