#	Name: ASD01811100
#	Creating user name:	WinNT
#	Creation time:	15. 06. 2019 19:26

#	Modifying user name:	WinNT
#	Modification time:	15. 06. 2019 19:26

#	Program:	/corina/corina34_cracker 3.40 0067  02.08.2006

@<TRIPOS>MOLECULE
ASD01811100
  53   56    0    0    0
SMALL
NO_CHARGES


@<TRIPOS>ATOM
   1 C1            -1.9067     1.4014     0.0373 C.2     
   2 C2            -2.0105     0.0626     0.0826 C.2     
   3 N3            -0.9003    -0.7284    -0.0086 N.pl3   
   4 C4             0.3411    -0.2442    -0.1330 C.2     
   5 C5             0.5525     1.1197    -0.1787 C.2     
   6 C6            -0.6216     1.9979    -0.0941 C.2     
   7 C7            -1.0779    -2.1820     0.0326 C.3     
   8 C8            -0.8981    -2.6702     1.4469 C.ar    
   9 O9            -0.4972     3.2118    -0.1282 O.2     
  10 C10            1.9086     1.6746    -0.3122 C.2     
  11 O11            2.8659     0.9292    -0.3843 O.2     
  12 O12            2.0894     3.0096    -0.3545 O.3     
  13 C13           -2.0039    -2.8622     2.2554 C.ar    
  14 C14           -1.8451    -3.3087     3.5516 C.ar    
  15 C15           -0.5677    -3.5666     4.0454 C.ar    
  16 C16            0.5427    -3.3719     3.2263 C.ar    
  17 C17            0.3717    -2.9300     1.9300 C.ar    
  18 C18           -0.3906    -4.0463     5.4381 C.ar    
  19 C19            0.8875    -4.3039     5.9307 C.ar    
  20 C20            1.0490    -4.7493     7.2258 C.ar    
  21 C21           -0.0600    -4.9415     8.0386 C.ar    
  22 C22           -1.3343    -4.6858     7.5507 C.ar    
  23 C23           -1.5017    -4.2347     6.2583 C.ar    
  24 C24           -3.0930     2.3252     0.1127 C.3     
  25 C25           -4.3119     1.5968     0.6748 C.3     
  26 C26           -4.4911     0.2907    -0.1092 C.3     
  27 C27           -3.3354    -0.6416     0.2446 C.3     
  28 O28           -2.7746     3.4316     0.9593 O.3     
  29 O29            0.1022    -5.3812     9.3139 O.3     
  30 C30           -1.0815    -5.5574    10.0949 C.3     
  31 H31            1.1797    -0.9217    -0.1976 H       
  32 H32           -2.0795    -2.4356    -0.3148 H       
  33 H33           -0.3386    -2.6568    -0.6124 H       
  34 H34            2.9985     3.3269    -0.4429 H       
  35 H35           -2.9934    -2.6620     1.8717 H       
  36 H36           -2.7091    -3.4576     4.1823 H       
  37 H37            1.5350    -3.5699     3.6039 H       
  38 H38            1.2316    -2.7791     1.2942 H       
  39 H39            1.7505    -4.1553     5.2986 H       
  40 H40            2.0392    -4.9491     7.6080 H       
  41 H41           -2.1952    -4.8365     8.1852 H       
  42 H42           -2.4932    -4.0356     5.8794 H       
  43 H43           -3.3247     2.6940    -0.8865 H       
  44 H44           -4.1532     1.3738     1.7298 H       
  45 H45           -5.1987     2.2199     0.5591 H       
  46 H46           -5.4371    -0.1759     0.1653 H       
  47 H47           -4.4804     0.4997    -1.1789 H       
  48 H48           -3.3621    -1.5112    -0.4121 H       
  49 H49           -3.4430    -0.9701     1.2783 H       
  50 H50           -3.4927     4.0718     1.0567 H       
  51 H51           -1.6070    -4.6060    10.1777 H       
  52 H52           -1.7293    -6.2895     9.6128 H       
  53 H53           -0.8111    -5.9109    11.0899 H       
@<TRIPOS>BOND
   1    1    2 2
   2    1   24 1
   3    1    6 1
   4    2    3 1
   5    2   27 1
   6    3    4 1
   7    3    7 1
   8    4    5 2
   9    4   31 1
  10    5    6 1
  11    5   10 1
  12    6    9 2
  13    7    8 1
  14    7   32 1
  15    7   33 1
  16    8   13 ar
  17    8   17 ar
  18   10   11 2
  19   10   12 1
  20   12   34 1
  21   13   14 ar
  22   13   35 1
  23   14   15 ar
  24   14   36 1
  25   15   16 ar
  26   15   18 1
  27   16   17 ar
  28   16   37 1
  29   17   38 1
  30   18   19 ar
  31   18   23 ar
  32   19   20 ar
  33   19   39 1
  34   20   21 ar
  35   20   40 1
  36   21   22 ar
  37   21   29 1
  38   22   23 ar
  39   22   41 1
  40   23   42 1
  41   24   25 1
  42   24   28 1
  43   24   43 1
  44   25   26 1
  45   25   44 1
  46   25   45 1
  47   26   27 1
  48   26   46 1
  49   26   47 1
  50   27   48 1
  51   27   49 1
  52   28   50 1
  53   29   30 1
  54   30   51 1
  55   30   52 1
  56   30   53 1

#	End of record

