#	Name: ASD09610002
#	Creating user name:	WinNT
#	Creation time:	15. 06. 2019 21:22

#	Modifying user name:	WinNT
#	Modification time:	15. 06. 2019 21:22

#	Program:	/corina/corina34_cracker 3.40 0067  02.08.2006

@<TRIPOS>MOLECULE
ASD09610002
  41   44    0    0    0
SMALL
NO_CHARGES


@<TRIPOS>ATOM
   1 N1            -0.0195     1.4429    -0.1906 N.pl3   
   2 N2            -0.0097     0.2263    -0.8819 N.2     
   3 C3             1.2271    -0.1208    -1.1089 C.2     
   4 C4             2.0679     0.8752    -0.5633 C.2     
   5 C5             1.2506     1.8341     0.0011 C.2     
   6 C6             3.5416     0.8878    -0.5911 C.2     
   7 O7             4.1476    -0.0229    -1.1225 O.2     
   8 N8             4.2176     1.9086    -0.0276 N.am    
   9 C9            -1.2142     2.1704     0.2450 C.3     
  10 C10            1.6799    -1.3659    -1.8270 C.3     
  11 F11            0.7172    -1.7349    -2.7727 F       
  12 F12            2.8957    -1.1160    -2.4724 F       
  13 C13            8.2437     4.4130    -0.1357 C.3     
  14 C14            7.8248     5.1227     1.1905 C.3     
  15 C15            6.2796     5.1743     1.1037 C.3     
  16 C16            5.9655     4.4889    -0.2637 C.3     
  17 C17            6.3538     3.0252    -0.0571 C.ar    
  18 C18            5.6133     1.8639     0.0518 C.ar    
  19 C19            6.2656     0.6498     0.2406 C.ar    
  20 C20            7.6443     0.6103     0.3183 C.ar    
  21 C21            8.3822     1.7771     0.2082 C.ar    
  22 C22            7.7386     2.9788     0.0210 C.ar    
  23 C23            7.1729     4.9754    -1.1042 C.2     
  24 C24            7.2586     5.6331    -2.2378 C.2     
  25 Cl25           8.8154     6.0175    -2.9028 Cl      
  26 Cl26           5.8149     6.1180    -3.0712 Cl      
  27 H27            1.5735     2.7337     0.5039 H       
  28 H28            3.7361     2.6742     0.3229 H       
  29 H29           -1.4935     1.8436     1.2467 H       
  30 H30           -1.0041     3.2399     0.2572 H       
  31 H31           -2.0338     1.9689    -0.4447 H       
  32 H32            1.8101    -2.1737    -1.1069 H       
  33 H33            9.2873     4.5245    -0.4301 H       
  34 H34            8.1410     4.5384     2.0546 H       
  35 H35            8.2402     6.1295     1.2344 H       
  36 H36            5.8305     4.6155     1.9248 H       
  37 H37            5.9297     6.2066     1.1045 H       
  38 H38            4.9711     4.6682    -0.6726 H       
  39 H39            5.6938    -0.2624     0.3268 H       
  40 H40            8.1483    -0.3335     0.4657 H       
  41 H41            9.4599     1.7440     0.2694 H       
@<TRIPOS>BOND
   1    1    2 1
   2    1    5 1
   3    1    9 1
   4    2    3 2
   5    3    4 1
   6    3   10 1
   7    4    5 2
   8    4    6 1
   9    5   27 1
  10    6    7 2
  11    6    8 am
  12    8   18 1
  13    8   28 1
  14    9   29 1
  15    9   30 1
  16    9   31 1
  17   10   11 1
  18   10   12 1
  19   10   32 1
  20   13   14 1
  21   13   22 1
  22   13   23 1
  23   13   33 1
  24   14   15 1
  25   14   34 1
  26   14   35 1
  27   15   16 1
  28   15   36 1
  29   15   37 1
  30   16   17 1
  31   16   23 1
  32   16   38 1
  33   17   18 ar
  34   17   22 ar
  35   18   19 ar
  36   19   20 ar
  37   19   39 1
  38   20   21 ar
  39   20   40 1
  40   21   22 ar
  41   21   41 1
  42   23   24 2
  43   24   25 1
  44   24   26 1

#	End of record

