#	Name: ASD01240021
#	Creating user name:	WinNT
#	Creation time:	15. 06. 2019 19:15

#	Modifying user name:	WinNT
#	Modification time:	15. 06. 2019 19:15

#	Program:	/corina/corina34_cracker 3.40 0067  02.08.2006

@<TRIPOS>MOLECULE
ASD01240021
  27   28    0    0    0
SMALL
NO_CHARGES


@<TRIPOS>ATOM
   1 C1             0.0489     1.3414    -0.0494 C.ar    
   2 C2             0.0251    -0.0442    -0.0022 C.ar    
   3 C3             1.2111    -0.7543     0.0334 C.ar    
   4 C4             2.4219    -0.0825     0.0220 C.ar    
   5 C5             2.4474     1.3000    -0.0246 C.ar    
   6 C6             1.2637     2.0132    -0.0608 C.ar    
   7 O7            -1.1161     2.0410    -0.0901 O.3     
   8 C8            -1.2923    -0.7757     0.0107 C.3     
   9 C9            -1.8013    -0.9190    -1.4005 C.ar    
  10 C10           -2.7248    -0.0179    -1.8977 C.ar    
  11 C11           -3.1926    -0.1492    -3.1943 C.ar    
  12 C12           -2.7372    -1.1817    -3.9946 C.ar    
  13 C13           -1.8139    -2.0844    -3.5009 C.ar    
  14 C14           -1.3394    -1.9511    -2.2031 C.ar    
  15 O15           -0.4272    -2.8346    -1.7179 O.3     
  16 Cl16          -1.2437    -3.3805    -4.5053 Cl      
  17 Cl17          -4.3525     0.9829    -3.8162 Cl      
  18 Cl18          -3.2985     1.2783    -0.8955 Cl      
  19 Cl19           1.2965     3.7479    -0.1204 Cl      
  20 Cl20           3.9096    -0.9760     0.0668 Cl      
  21 Cl21           1.1821    -2.4890     0.0931 Cl      
  22 H22            3.3926     1.8223    -0.0328 H       
  23 H23           -1.4658     2.2737     0.7809 H       
  24 H24           -1.1549    -1.7640     0.4495 H       
  25 H25           -2.0146    -0.2129     0.6021 H       
  26 H26           -3.1035    -1.2828    -5.0056 H       
  27 H27           -0.8183    -3.6079    -1.2887 H       
@<TRIPOS>BOND
   1    1    2 ar
   2    1    6 ar
   3    1    7 1
   4    2    3 ar
   5    2    8 1
   6    3    4 ar
   7    3   21 1
   8    4    5 ar
   9    4   20 1
  10    5    6 ar
  11    5   22 1
  12    6   19 1
  13    7   23 1
  14    8    9 1
  15    8   24 1
  16    8   25 1
  17    9   10 ar
  18    9   14 ar
  19   10   11 ar
  20   10   18 1
  21   11   12 ar
  22   11   17 1
  23   12   13 ar
  24   12   26 1
  25   13   14 ar
  26   13   16 1
  27   14   15 1
  28   15   27 1

#	End of record

