#	Name: ASD03330563
#	Creating user name:	WinNT
#	Creation time:	15. 06. 2019 20:37

#	Modifying user name:	WinNT
#	Modification time:	15. 06. 2019 20:37

#	Program:	/corina/corina34_cracker 3.40 0067  02.08.2006

@<TRIPOS>MOLECULE
ASD03330563
  60   62    0    0    0
SMALL
NO_CHARGES


@<TRIPOS>ATOM
   1 C1            -0.0316     1.9841     1.7653 C.2     
   2 N2            -0.1132     0.6899     2.1793 N.pl3   
   3 C3             1.2442     2.1891     1.3384 C.2     
   4 N4             1.9196     1.0194     1.4793 N.2     
   5 C5             1.1080     0.1155     1.9781 C.2     
   6 C6             1.4590    -1.2895     2.2731 C.2     
   7 C7             1.7936     3.4525     0.8166 C.2     
   8 O8             1.0845     4.4375     0.7380 O.2     
   9 C9             3.6285     4.7731    -0.0924 C.3     
  10 N10            3.0821     3.5168     0.4265 N.am    
  11 C11            3.3231     4.8832    -1.5875 C.3     
  12 C12            1.8141     4.7631    -1.8100 C.3     
  13 C13            3.8093     6.2369    -2.1091 C.3     
  14 C14            4.0404     3.7597    -2.3386 C.3     
  15 C15            5.1204     4.7972     0.1187 C.2     
  16 N16            5.8001     5.9543    -0.0060 N.am    
  17 O17            5.7095     3.7753     0.4007 O.2     
  18 C18            7.2591     5.9647     0.1259 C.3     
  19 C19           -1.3045     0.0540     2.7489 C.3     
  20 C20           -2.5187     0.3899     1.8774 C.3     
  21 C21           -3.1385     1.7043     2.3406 C.3     
  22 N22           -2.1129     2.6265     2.8319 N.3     
  23 C23           -1.1606     2.9820     1.7694 C.3     
  24 C24           -2.7223     3.8285     3.4165 C.3     
  25 C25            1.1440    -1.8932     3.4345 C.2     
  26 S26            1.6970    -3.5074     3.4385 S.3     
  27 C27            2.3657    -3.3380     1.8223 C.2     
  28 C28            2.1410    -2.1070     1.3683 C.2     
  29 C29            2.5891    -1.6360     0.0087 C.3     
  30 H30            3.1735     5.6121     0.4341 H       
  31 H31            3.6476     2.7312     0.4892 H       
  32 H32            1.3031     5.5635    -1.2749 H       
  33 H33            1.5965     4.8415    -2.8752 H       
  34 H34            1.4677     3.7987    -1.4384 H       
  35 H35            4.8521     6.3818    -1.8267 H       
  36 H36            3.7203     6.2611    -3.1952 H       
  37 H37            3.2020     7.0322    -1.6770 H       
  38 H38            3.6939     2.7953    -1.9671 H       
  39 H39            3.8228     3.8381    -3.4038 H       
  40 H40            5.1154     3.8453    -2.1801 H       
  41 H41            5.3233     6.7802    -0.1831 H       
  42 H42            7.6285     6.9819    -0.0046 H       
  43 H43            7.5371     5.6014     1.1153 H       
  44 H44            7.6974     5.3186    -0.6348 H       
  45 H45           -1.1631    -1.0265     2.7758 H       
  46 H46           -1.4679     0.4262     3.7603 H       
  47 H47           -2.2039     0.4840     0.8381 H       
  48 H48           -3.2566    -0.4081     1.9608 H       
  49 H49           -3.6638     2.1661     1.5046 H       
  50 H50           -3.8502     1.5016     3.1409 H       
  51 H51           -0.7640     3.9803     1.9545 H       
  52 H52           -1.6673     2.9630     0.8045 H       
  53 H53           -3.3632     3.5421     4.2503 H       
  54 H54           -1.9383     4.4964     3.7735 H       
  55 H55           -3.3176     4.3390     2.6594 H       
  56 H56            0.6158    -1.4216     4.2500 H       
  57 H57            2.8784    -4.1169     1.2775 H       
  58 H58            1.8043    -1.8342    -0.7213 H       
  59 H59            2.7911    -0.5655     0.0434 H       
  60 H60            3.4960    -2.1677    -0.2794 H       
@<TRIPOS>BOND
   1    1    2 1
   2    1    3 2
   3    1   23 1
   4    2   19 1
   5    2    5 1
   6    3    4 1
   7    3    7 1
   8    4    5 2
   9    5    6 1
  10    6   25 2
  11    6   28 1
  12    7    8 2
  13    7   10 am
  14    9   10 1
  15    9   11 1
  16    9   15 1
  17    9   30 1
  18   10   31 1
  19   11   12 1
  20   11   13 1
  21   11   14 1
  22   12   32 1
  23   12   33 1
  24   12   34 1
  25   13   35 1
  26   13   36 1
  27   13   37 1
  28   14   38 1
  29   14   39 1
  30   14   40 1
  31   15   16 am
  32   15   17 2
  33   16   18 1
  34   16   41 1
  35   18   42 1
  36   18   43 1
  37   18   44 1
  38   19   20 1
  39   19   45 1
  40   19   46 1
  41   20   21 1
  42   20   47 1
  43   20   48 1
  44   21   22 1
  45   21   49 1
  46   21   50 1
  47   22   23 1
  48   22   24 1
  49   23   51 1
  50   23   52 1
  51   24   53 1
  52   24   54 1
  53   24   55 1
  54   25   26 1
  55   25   56 1
  56   26   27 1
  57   27   28 2
  58   27   57 1
  59   28   29 1
  60   29   58 1
  61   29   59 1
  62   29   60 1

#	End of record

