#	Name: ASD09200003
#	Creating user name:	WinNT
#	Creation time:	15. 06. 2019 21:21

#	Modifying user name:	WinNT
#	Modification time:	15. 06. 2019 21:21

#	Program:	/corina/corina34_cracker 3.40 0067  02.08.2006

@<TRIPOS>MOLECULE
ASD09200003
  75   80    0    0    0
SMALL
NO_CHARGES


@<TRIPOS>ATOM
   1 C1            -0.0442     1.3276    -0.1454 C.ar    
   2 C2             0.0025    -0.0393    -0.3513 C.ar    
   3 C3             1.2125    -0.7026    -0.3278 C.ar    
   4 C4             2.3896     0.0083    -0.0959 C.ar    
   5 C5             2.3359     1.3868     0.1111 C.ar    
   6 C6             1.1202     2.0385     0.0853 C.ar    
   7 C7             3.6907    -0.6970    -0.0689 C.2     
   8 N8             4.8569    -0.2016    -0.4252 N.2     
   9 N9             5.7822    -1.0800    -0.2790 N.2     
  10 N10            5.2885    -2.1816     0.1727 N.2     
  11 N11            3.9073    -1.9739     0.3330 N.pl3   
  12 C12            2.9146    -2.9322     0.8256 C.3     
  13 C13            2.7453    -4.1079    -0.1658 C.3     
  14 O14            4.2871    -4.6836     1.5838 O.3     
  15 C15            3.4251    -3.6478     2.1016 C.3     
  16 C16            3.6357    -5.2301     0.4256 C.3     
  17 O17            3.3211    -3.7356    -1.4284 O.3     
  18 C18            4.0166    -4.8962    -1.9321 C.3     
  19 C19            4.6978    -5.4839    -0.6705 C.3     
  20 C20            1.2810    -4.5277    -0.3092 C.3     
  21 C21            2.8269    -6.4836     0.7653 C.3     
  22 N22            4.9473    -6.9224    -0.8335 N.3     
  23 C23            6.2315    -7.1612    -1.5056 C.3     
  24 C24            6.4557    -8.6671    -1.6569 C.3     
  25 C25            5.6187   -10.7550    -2.7444 C.3     
  26 C26            5.3946    -9.2491    -2.5930 C.3     
  27 C27            7.8463    -8.9194    -2.2429 C.3     
  28 C28            8.0705   -10.4253    -2.3943 C.3     
  29 C29            7.0094   -11.0073    -3.3303 C.3     
  30 C30            1.0603     3.5276     0.3088 C.3     
  31 N31            0.8993     3.8014     1.7430 N.3     
  32 C32           -0.7312     5.2898     2.7578 C.3     
  33 C33           -0.8199     3.8868     3.4140 C.3     
  34 C34           -0.1935     2.9887     2.3182 C.3     
  35 C35            0.5993     5.2257     1.9786 C.3     
  36 H36           -0.9931     1.8429    -0.1691 H       
  37 H37           -0.9099    -0.5888    -0.5305 H       
  38 H38            1.2476    -1.7700    -0.4884 H       
  39 H39            3.2442     1.9427     0.2912 H       
  40 H40            1.9600    -2.4392     1.0092 H       
  41 H41            3.9885    -2.9577     2.7295 H       
  42 H42            2.5937    -4.0821     2.6568 H       
  43 H43            3.3123    -5.6116    -2.3566 H       
  44 H44            4.7630    -4.6057    -2.6714 H       
  45 H45            5.6222    -4.9520    -0.4455 H       
  46 H46            0.6989    -3.6902    -0.6937 H       
  47 H47            1.2098    -5.3675    -1.0005 H       
  48 H48            0.8911    -4.8246     0.6644 H       
  49 H49            2.3526    -6.8660    -0.1386 H       
  50 H50            3.4907    -7.2439     1.1768 H       
  51 H51            2.0611    -6.2339     1.4996 H       
  52 H52            4.9102    -7.3988     0.0552 H       
  53 H53            6.2182    -6.6950    -2.4907 H       
  54 H54            7.0380    -6.7317    -0.9112 H       
  55 H55            6.3806    -9.1456    -0.6805 H       
  56 H56            5.5436   -11.2335    -1.7679 H       
  57 H57            4.8628   -11.1696    -3.4113 H       
  58 H58            4.4038    -9.0694    -2.1756 H       
  59 H59            5.4697    -8.7706    -3.5695 H       
  60 H60            7.9214    -8.4409    -3.2194 H       
  61 H61            8.6023    -8.5047    -1.5760 H       
  62 H62            9.0612   -10.6050    -2.8117 H       
  63 H63            7.9954   -10.9037    -1.4178 H       
  64 H64            7.1691   -12.0801    -3.4382 H       
  65 H65            7.0845   -10.5288    -4.3068 H       
  66 H66            1.9830     3.9858    -0.0473 H       
  67 H67            0.2138     3.9433    -0.2377 H       
  68 H68           -1.5683     5.4511     2.0784 H       
  69 H69           -0.6952     6.0695     3.5186 H       
  70 H70           -0.2345     3.8477     4.3326 H       
  71 H71           -1.8569     3.6082     3.6014 H       
  72 H72           -0.9331     2.7515     1.5534 H       
  73 H73            0.2047     2.0746     2.7586 H       
  74 H74            1.3961     5.6800     2.5675 H       
  75 H75            0.4966     5.7455     1.0261 H       
@<TRIPOS>BOND
   1    1    2 ar
   2    1    6 ar
   3    1   36 1
   4    2    3 ar
   5    2   37 1
   6    3    4 ar
   7    3   38 1
   8    4    5 ar
   9    4    7 1
  10    5    6 ar
  11    5   39 1
  12    6   30 1
  13    7    8 2
  14    7   11 1
  15    8    9 1
  16    9   10 2
  17   10   11 1
  18   11   12 1
  19   12   13 1
  20   12   15 1
  21   12   40 1
  22   13   17 1
  23   13   16 1
  24   13   20 1
  25   14   15 1
  26   14   16 1
  27   15   41 1
  28   15   42 1
  29   16   21 1
  30   16   19 1
  31   17   18 1
  32   18   19 1
  33   18   43 1
  34   18   44 1
  35   19   22 1
  36   19   45 1
  37   20   46 1
  38   20   47 1
  39   20   48 1
  40   21   49 1
  41   21   50 1
  42   21   51 1
  43   22   23 1
  44   22   52 1
  45   23   24 1
  46   23   53 1
  47   23   54 1
  48   24   27 1
  49   24   26 1
  50   24   55 1
  51   25   26 1
  52   25   29 1
  53   25   56 1
  54   25   57 1
  55   26   58 1
  56   26   59 1
  57   27   28 1
  58   27   60 1
  59   27   61 1
  60   28   29 1
  61   28   62 1
  62   28   63 1
  63   29   64 1
  64   29   65 1
  65   30   31 1
  66   30   66 1
  67   30   67 1
  68   31   35 1
  69   31   34 1
  70   32   33 1
  71   32   35 1
  72   32   68 1
  73   32   69 1
  74   33   34 1
  75   33   70 1
  76   33   71 1
  77   34   72 1
  78   34   73 1
  79   35   74 1
  80   35   75 1

#	End of record

