#	Name: ASD02038614
#	Creating user name:	WinNT
#	Creation time:	15. 06. 2019 20:17

#	Modifying user name:	WinNT
#	Modification time:	15. 06. 2019 20:17

#	Program:	/corina/corina34_cracker 3.40 0067  02.08.2006

@<TRIPOS>MOLECULE
ASD02038614
  59   60    0    0    0
SMALL
NO_CHARGES


@<TRIPOS>ATOM
   1 C1            -0.6889     0.3430     1.2221 C.ar    
   2 C2            -0.7238    -1.0001     0.8866 C.ar    
   3 C3            -1.9354    -1.6245     0.6564 C.ar    
   4 C4            -3.1174    -0.9035     0.7620 C.ar    
   5 C5            -3.0788     0.4437     1.0988 C.ar    
   6 C6            -1.8661     1.0617     1.3330 C.ar    
   7 N7            -4.3437    -1.5319     0.5294 N.pl3   
   8 C8            -5.5900    -0.7700     0.6412 C.3     
   9 C9            -6.7771    -1.6869     0.3393 C.3     
  10 N10           -6.5896    -2.3136    -0.9760 N.3     
  11 C11           -6.5256    -1.3003    -2.0376 C.3     
  12 C12           -6.1855    -1.9759    -3.3676 C.3     
  13 O13           -7.2510    -2.8507    -3.7437 O.3     
  14 C14           -7.1062    -3.5339    -4.9107 C.ar    
  15 Cl15           0.8340     1.1246     1.5113 Cl      
  16 C16           -8.1030    -4.4000    -5.3350 C.ar    
  17 C17           -5.9644    -3.3599    -5.6786 C.ar    
  18 C18           -5.8168    -4.0530    -6.8641 C.ar    
  19 C19           -6.8117    -4.9246    -7.2868 C.ar    
  20 C20           -7.9568    -5.0943    -6.5200 C.ar    
  21 N21           -6.6629    -5.6272    -8.4879 N.am    
  22 S22           -5.6120    -6.9040    -8.5755 S.o2    
  23 O23           -5.7334    -7.3667    -9.9136 O.2     
  24 Cl24           0.7549    -1.9000     0.7544 Cl      
  25 O25           -4.3833    -6.3805    -8.0900 O.2     
  26 C26           -6.2859    -8.1255    -7.4160 C.3     
  27 C27           -8.0676    -0.8651     0.3334 C.3     
  28 C28           -9.2663    -1.7993     0.1561 C.3     
  29 C29          -10.5462    -0.9697     0.0367 C.3     
  30 C30          -11.7449    -1.9039    -0.1407 C.3     
  31 H31           -1.9626    -2.6719     0.3943 H       
  32 H32           -3.9968     1.0066     1.1812 H       
  33 H33           -1.8361     2.1089     1.5952 H       
  34 H34           -4.3697    -2.4725     0.2940 H       
  35 H35           -5.6845    -0.3743     1.6524 H       
  36 H36           -5.5771     0.0544    -0.0718 H       
  37 H37           -6.8424    -2.4605     1.1044 H       
  38 H38           -5.7673    -2.8983    -0.9841 H       
  39 H39           -7.4902    -0.7997    -2.1207 H       
  40 H40           -5.7558    -0.5679    -1.7949 H       
  41 H41           -6.0506    -1.2159    -4.1372 H       
  42 H42           -5.2653    -2.5500    -3.2587 H       
  43 H43           -8.9936    -4.5319    -4.7385 H       
  44 H44           -5.1907    -2.6820    -5.3497 H       
  45 H45           -4.9279    -3.9169    -7.4623 H       
  46 H46           -8.7311    -5.7720    -6.8480 H       
  47 H47           -7.1754    -5.3664    -9.2690 H       
  48 H48           -7.3237    -8.3370    -7.6737 H       
  49 H49           -5.7021    -9.0440    -7.4759 H       
  50 H50           -6.2369    -7.7293    -6.4017 H       
  51 H51           -8.1614    -0.3291     1.2779 H       
  52 H52           -8.0394    -0.1502    -0.4888 H       
  53 H53           -9.1330    -2.3938    -0.7478 H       
  54 H54           -9.3416    -2.4615     1.0186 H       
  55 H55          -10.6795    -0.3752     0.9405 H       
  56 H56          -10.4709    -0.3075    -0.8259 H       
  57 H57          -12.6567    -1.3128    -0.2257 H       
  58 H58          -11.6116    -2.4983    -1.0445 H       
  59 H59          -11.8202    -2.5660     0.7219 H       
@<TRIPOS>BOND
   1    1    2 ar
   2    1   15 1
   3    1    6 ar
   4    2    3 ar
   5    2   24 1
   6    3    4 ar
   7    3   31 1
   8    4    5 ar
   9    4    7 1
  10    5    6 ar
  11    5   32 1
  12    6   33 1
  13    7    8 1
  14    7   34 1
  15    8    9 1
  16    8   35 1
  17    8   36 1
  18    9   10 1
  19    9   27 1
  20    9   37 1
  21   10   11 1
  22   10   38 1
  23   11   12 1
  24   11   39 1
  25   11   40 1
  26   12   13 1
  27   12   41 1
  28   12   42 1
  29   13   14 1
  30   14   16 ar
  31   14   17 ar
  32   16   20 ar
  33   16   43 1
  34   17   18 ar
  35   17   44 1
  36   18   19 ar
  37   18   45 1
  38   19   20 ar
  39   19   21 1
  40   20   46 1
  41   21   22 am
  42   21   47 1
  43   22   23 2
  44   22   25 2
  45   22   26 1
  46   26   48 1
  47   26   49 1
  48   26   50 1
  49   27   28 1
  50   27   51 1
  51   27   52 1
  52   28   29 1
  53   28   53 1
  54   28   54 1
  55   29   30 1
  56   29   55 1
  57   29   56 1
  58   30   57 1
  59   30   58 1
  60   30   59 1

#	End of record

