#	Name: ASD02500282
#	Creating user name:	WinNT
#	Creation time:	15. 06. 2019 20:22

#	Modifying user name:	WinNT
#	Modification time:	15. 06. 2019 20:22

#	Program:	/corina/corina34_cracker 3.40 0067  02.08.2006

@<TRIPOS>MOLECULE
ASD02500282
  66   70    0    0    0
SMALL
NO_CHARGES


@<TRIPOS>ATOM
   1 N1             1.7664    -2.0690     2.0380 N.am    
   2 C2             3.0655    -1.3840     2.0917 C.3     
   3 C3             3.7731    -1.5689     0.7436 C.3     
   4 N4             2.8333    -1.2219    -0.3316 N.am    
   5 C5             1.5342    -1.9069    -0.3853 C.3     
   6 C6             0.8266    -1.7219     0.9628 C.3     
   7 C7             1.4450    -3.0028     2.9552 C.2     
   8 O8             2.2323    -3.2850     3.8366 O.2     
   9 O9             0.2515    -3.6229     2.8947 O.3     
  10 C10            3.1568    -0.2917    -1.2518 C.2     
  11 C11            4.4236     0.4547    -1.1322 C.ar    
  12 C12            5.5978    -0.2121    -0.7684 C.ar    
  13 C13            6.7808     0.4897    -0.6582 C.ar    
  14 C14            6.8034     1.8631    -0.9098 C.ar    
  15 C15            5.6358     2.5252    -1.2710 C.ar    
  16 C16            4.4535     1.8279    -1.3879 C.ar    
  17 O17            2.4045    -0.0677    -2.1804 O.2     
  18 S18            7.9828     4.1454    -0.2855 S.o2    
  19 O19            7.1140     4.1930     0.8380 O.2     
  20 O20            9.3396     4.5647    -0.2370 O.2     
  21 N21            7.9980     2.5709    -0.7984 N.am    
  22 N22            8.9487     4.5601    -3.0995 N.ar    
  23 C23            9.5026     4.6411    -4.2848 C.ar    
  24 C24            8.9277     5.3844    -5.3136 C.ar    
  25 C25            7.7559     6.0524    -5.0993 C.ar    
  26 C26            7.1636     5.9628    -3.8253 C.ar    
  27 C27            5.9599     6.6223    -3.5305 C.ar    
  28 C28            5.4190     6.5111    -2.2858 C.ar    
  29 C29            6.0441     5.7505    -1.3001 C.ar    
  30 C30            7.2123     5.0988    -1.5511 C.ar    
  31 C31            7.8020     5.1896    -2.8238 C.ar    
  32 O32            7.9244    -0.1560    -0.3041 O.3     
  33 C33            7.8276    -1.5609    -0.0612 C.3     
  34 O34           -1.7551    -4.8884     5.5620 O.3     
  35 C35           -0.7391    -3.9776     5.1263 C.3     
  36 C36           -0.0271    -4.6175     3.9152 C.3     
  37 C37           -1.0825    -5.6415     3.4156 C.3     
  38 C38           -1.7272    -6.0768     4.7556 C.3     
  39 H39            2.9114    -0.3217     2.2812 H       
  40 H40            3.6741    -1.8154     2.8864 H       
  41 H41            4.6433    -0.9143     0.6943 H       
  42 H42            4.0867    -2.6071     0.6344 H       
  43 H43            0.9256    -1.4754    -1.1801 H       
  44 H44            1.6883    -2.9691    -0.5748 H       
  45 H45           -0.0436    -2.3765     1.0121 H       
  46 H46            0.5130    -0.6837     1.0720 H       
  47 H47            5.5787    -1.2743    -0.5737 H       
  48 H48            5.6564     3.5875    -1.4643 H       
  49 H49            3.5485     2.3438    -1.6730 H       
  50 H50            8.8388     2.1415    -1.0212 H       
  51 H51           10.4294     4.1181    -4.4687 H       
  52 H52            9.4084     5.4326    -6.2795 H       
  53 H53            7.2965     6.6336    -5.8852 H       
  54 H54            5.4658     7.2146    -4.2865 H       
  55 H55            4.4929     7.0188    -2.0599 H       
  56 H56            5.5955     5.6785    -0.3203 H       
  57 H57            8.8082    -1.9508     0.2118 H       
  58 H58            7.1254    -1.7413     0.7527 H       
  59 H59            7.4755    -2.0621    -0.9628 H       
  60 H60           -1.1926    -3.0314     4.8311 H       
  61 H61           -0.0227    -3.8105     5.9306 H       
  62 H62            0.8892    -5.1201     4.2250 H       
  63 H63           -1.8147    -5.1646     2.7640 H       
  64 H64           -0.6058    -6.4852     2.9166 H       
  65 H65           -1.1209    -6.8452     5.2352 H       
  66 H66           -2.7398    -6.4434     4.5868 H       
@<TRIPOS>BOND
   1    1    2 1
   2    1    6 1
   3    1    7 am
   4    2    3 1
   5    2   39 1
   6    2   40 1
   7    3    4 1
   8    3   41 1
   9    3   42 1
  10    4    5 1
  11    4   10 am
  12    5    6 1
  13    5   43 1
  14    5   44 1
  15    6   45 1
  16    6   46 1
  17    7    8 2
  18    7    9 1
  19    9   36 1
  20   10   11 1
  21   10   17 2
  22   11   12 ar
  23   11   16 ar
  24   12   13 ar
  25   12   47 1
  26   13   14 ar
  27   13   32 1
  28   14   15 ar
  29   14   21 1
  30   15   16 ar
  31   15   48 1
  32   16   49 1
  33   18   19 2
  34   18   20 2
  35   18   21 am
  36   18   30 1
  37   21   50 1
  38   22   23 ar
  39   22   31 ar
  40   23   24 ar
  41   23   51 1
  42   24   25 ar
  43   24   52 1
  44   25   26 ar
  45   25   53 1
  46   26   27 ar
  47   26   31 ar
  48   27   28 ar
  49   27   54 1
  50   28   29 ar
  51   28   55 1
  52   29   30 ar
  53   29   56 1
  54   30   31 ar
  55   32   33 1
  56   33   57 1
  57   33   58 1
  58   33   59 1
  59   34   35 1
  60   34   38 1
  61   35   36 1
  62   35   60 1
  63   35   61 1
  64   36   37 1
  65   36   62 1
  66   37   38 1
  67   37   63 1
  68   37   64 1
  69   38   65 1
  70   38   66 1

#	End of record

