#	Name: ASD05740020
#	Creating user name:	WinNT
#	Creation time:	15. 06. 2019 21:02

#	Modifying user name:	WinNT
#	Modification time:	15. 06. 2019 21:02

#	Program:	/corina/corina34_cracker 3.40 0067  02.08.2006

@<TRIPOS>MOLECULE
ASD05740020
  61   62    0    0    0
SMALL
NO_CHARGES


@<TRIPOS>ATOM
   1 C1            -0.0163     1.3532     0.0095 C.ar    
   2 C2             1.1826     3.4254     0.0092 C.ar    
   3 C3            -0.0329     4.1192     0.0245 C.ar    
   4 C4            -1.2486     3.4103     0.0266 C.ar    
   5 C5            -1.2284     2.0237     0.0189 C.ar    
   6 C6            -0.0653     5.5832     0.0333 C.2     
   7 C7            -1.2765     6.1982     0.0486 C.2     
   8 C8            -2.4556     5.4251     0.0556 C.2     
   9 O9            -2.4191     4.0834     0.0422 O.3     
  10 C10           -1.3596     7.7029     0.0586 C.3     
  11 C11           -1.5244     8.2063    -1.3523 C.ar    
  12 C12           -0.4225     8.6075    -2.0967 C.ar    
  13 O13           -3.5349     5.9892     0.0693 O.2     
  14 C14           -2.8885     8.7445    -3.2449 C.ar    
  15 N15           -1.8136     9.1223    -3.9180 N.ar    
  16 C16           -0.6069     9.0631    -3.3860 C.ar    
  17 O17            0.0021    -0.0041     0.0020 O.3     
  18 N18           -4.1413     8.8235    -3.8451 N.am    
  19 S19           -4.2826     9.3883    -5.3953 S.o2    
  20 O20           -5.6790     9.3509    -5.6560 O.2     
  21 O21           -3.5718    10.6187    -5.3862 O.2     
  22 C22            1.2103     6.3856     0.0260 C.3     
  23 C23            1.1844     2.0608     0.0018 C.ar    
  24 C24            2.4933     1.3140    -0.0142 C.3     
  25 C25           -1.2622    -0.6701     0.0105 C.3     
  26 C26           -2.7770     8.2739    -1.9381 C.ar    
  27 F27           -3.8756     7.8887    -1.2526 F       
  28 C28           -3.4132     8.1584    -6.4062 C.3     
  29 C29           -3.4731     8.5664    -7.8557 C.2     
  30 O30           -4.0459     9.5865    -8.1753 O.2     
  31 N31           -2.8901     7.7978    -8.7968 N.am    
  32 C32           -2.9483     8.1944   -10.2059 C.3     
  33 H33            2.1162     3.9683     0.0072 H       
  34 H34           -2.1547     1.4684     0.0199 H       
  35 H35           -2.2145     8.0156     0.6581 H       
  36 H36           -0.4456     8.1145     0.4867 H       
  37 H37            0.5689     8.5635    -1.6704 H       
  38 H38            0.2476     9.3758    -3.9678 H       
  39 H39           -4.9319     8.5477    -3.3554 H       
  40 H40            2.0650     5.7093     0.0141 H       
  41 H41            1.2359     7.0191    -0.8606 H       
  42 H42            1.2525     7.0089     0.9192 H       
  43 H43            2.7992     1.1391    -1.0457 H       
  44 H44            3.2547     1.9043     0.4955 H       
  45 H45            2.3726     0.3583     0.4960 H       
  46 H46           -1.1047    -1.7486     0.0032 H       
  47 H47           -1.8146    -0.3896     0.9073 H       
  48 H48           -1.8316    -0.3800    -0.8725 H       
  49 H49           -2.3722     8.0973    -6.0887 H       
  50 H50           -3.8883     7.1852    -6.2828 H       
  51 H51           -2.4319     6.9819    -8.5412 H       
  52 H52           -2.4732     9.1676   -10.3293 H       
  53 H53           -2.4259     7.4554   -10.8133 H       
  54 H54           -3.9893     8.2555   -10.5234 H       
  55 C55            8.7819    18.2880     7.7875 C.3     
  56 N56            8.8017    16.8232     7.7794 N.2     
  57 C57            9.3424    16.2107     6.8334 C.1     
  58 O58            9.8650    15.6187     5.9192 O.2     
  59 H59            9.8045    18.6653     7.7798 H       
  60 H60            8.2547    18.6491     6.9044 H       
  61 H61            8.2717    18.6396     8.6843 H       
@<TRIPOS>BOND
   1    1   17 1
   2    1   23 ar
   3    1    5 ar
   4    2    3 ar
   5    2   23 ar
   6    2   33 1
   7    3    4 ar
   8    3    6 1
   9    4    5 ar
  10    4    9 1
  11    5   34 1
  12    6    7 2
  13    6   22 1
  14    7    8 1
  15    7   10 1
  16    8    9 1
  17    8   13 2
  18   10   11 1
  19   10   35 1
  20   10   36 1
  21   11   12 ar
  22   11   26 ar
  23   12   16 ar
  24   12   37 1
  25   14   15 ar
  26   14   18 1
  27   14   26 ar
  28   15   16 ar
  29   16   38 1
  30   17   25 1
  31   18   19 am
  32   18   39 1
  33   19   20 2
  34   19   21 2
  35   19   28 1
  36   22   40 1
  37   22   41 1
  38   22   42 1
  39   23   24 1
  40   24   43 1
  41   24   44 1
  42   24   45 1
  43   25   46 1
  44   25   47 1
  45   25   48 1
  46   26   27 1
  47   28   29 1
  48   28   49 1
  49   28   50 1
  50   29   30 2
  51   29   31 am
  52   31   32 1
  53   31   51 1
  54   32   52 1
  55   32   53 1
  56   32   54 1
  57   55   56 1
  58   55   59 1
  59   55   60 1
  60   55   61 1
  61   56   57 2
  62   57   58 2

#	End of record

