#	Name: ASD01708029
#	Creating user name:	WinNT
#	Creation time:	15. 06. 2019 19:22

#	Modifying user name:	WinNT
#	Modification time:	15. 06. 2019 19:22

#	Program:	/corina/corina34_cracker 3.40 0067  02.08.2006

@<TRIPOS>MOLECULE
ASD01708029
  65   68    0    0    0
SMALL
NO_CHARGES


@<TRIPOS>ATOM
   1 C1            -0.0192     1.3769    -0.0518 C.ar    
   2 C2             0.0836     0.1363    -0.6591 C.ar    
   3 C3             1.0843     1.9481     0.5604 C.ar    
   4 C4             2.2926     1.2838     0.5685 C.ar    
   5 C5             2.4024     0.0330    -0.0421 C.ar    
   6 C6             1.2867    -0.5376    -0.6575 C.ar    
   7 C7             3.6947    -0.6839    -0.0373 C.2     
   8 N8             3.7193    -2.0282     0.0570 N.am    
   9 O9             4.7356    -0.0612    -0.1185 O.2     
  10 C10            4.9782    -2.7818    -0.0655 C.3     
  11 C11            2.4939    -2.7991     0.2918 C.3     
  12 C12            2.7501    -3.8550     1.3385 C.ar    
  13 C13            4.0197    -4.1642     1.7767 C.ar    
  14 C14            5.2476    -3.4657     1.2738 C.3     
  15 C15            1.6500    -4.5244     1.8613 C.ar    
  16 C16            1.8103    -5.5062     2.8146 C.ar    
  17 C17            3.0948    -5.8320     3.2590 C.ar    
  18 C18            4.1944    -5.1550     2.7337 C.ar    
  19 Cl19           5.7934    -5.5539     3.2795 Cl      
  20 Cl20           0.4265    -6.3323     3.4598 Cl      
  21 C21            3.2856    -6.8851     4.2768 C.2     
  22 N22            3.2834    -6.5652     5.5861 N.am    
  23 O23            3.4446    -8.0405     3.9337 O.2     
  24 C24            3.4727    -7.6098     6.5957 C.3     
  25 C25            2.1477    -8.2598     6.9005 C.2     
  26 O26            2.0782    -9.2511     7.8028 O.3     
  27 O27            1.1479    -7.8886     6.3326 O.2     
  28 C28            4.0414    -6.9878     7.8726 C.3     
  29 C29            5.4201    -6.4457     7.5965 C.ar    
  30 Cl30          -1.5353     2.2226    -0.0641 Cl      
  31 C31            5.5767    -5.1409     7.1673 C.ar    
  32 C32            6.5285    -7.2513     7.7778 C.ar    
  33 C33            7.7934    -6.7541     7.5244 C.ar    
  34 C34            7.9495    -5.4515     7.0895 C.ar    
  35 C35            6.8413    -4.6437     6.9140 C.ar    
  36 C36            7.0115    -3.2235     6.4398 C.3     
  37 C37            7.8763    -2.4524     7.4389 C.3     
  38 C38            7.6911    -3.2214     5.0690 C.3     
  39 H39           -0.7802    -0.3042    -1.1345 H       
  40 H40            0.9982     2.9159     1.0320 H       
  41 H41            3.1524     1.7302     1.0458 H       
  42 H42            1.3656    -1.5050    -1.1311 H       
  43 H43            4.8841    -3.5321    -0.8505 H       
  44 H44            5.7949    -2.0997    -0.3022 H       
  45 H45            1.7052    -2.1304     0.6368 H       
  46 H46            2.1826    -3.2771    -0.6370 H       
  47 H47            6.0468    -4.1953     1.1430 H       
  48 H48            5.5604    -2.7198     2.0046 H       
  49 H49            0.6581    -4.2718     1.5166 H       
  50 H50            3.1566    -5.6433     5.8599 H       
  51 H51            4.1667    -8.3599     6.2167 H       
  52 H52            1.2065    -9.6371     7.9647 H       
  53 H53            3.3916    -6.1771     8.2025 H       
  54 H54            4.0990    -7.7474     8.6523 H       
  55 H55            4.7109    -4.5101     7.0296 H       
  56 H56            6.4065    -8.2692     8.1176 H       
  57 H57            8.6595    -7.3833     7.6667 H       
  58 H58            8.9377    -5.0629     6.8919 H       
  59 H59            6.0343    -2.7469     6.3615 H       
  60 H60            8.8535    -2.9289     7.5172 H       
  61 H61            7.9995    -1.4251     7.0960 H       
  62 H62            7.3921    -2.4538     8.4155 H       
  63 H63            8.6683    -3.6979     5.1473 H       
  64 H64            7.0750    -3.7708     4.3572 H       
  65 H65            7.8142    -2.1942     4.7260 H       
@<TRIPOS>BOND
   1    1    2 ar
   2    1    3 ar
   3    1   30 1
   4    2    6 ar
   5    2   39 1
   6    3    4 ar
   7    3   40 1
   8    4    5 ar
   9    4   41 1
  10    5    6 ar
  11    5    7 1
  12    6   42 1
  13    7    8 am
  14    7    9 2
  15    8   10 1
  16    8   11 1
  17   10   14 1
  18   10   43 1
  19   10   44 1
  20   11   12 1
  21   11   45 1
  22   11   46 1
  23   12   13 ar
  24   12   15 ar
  25   13   14 1
  26   13   18 ar
  27   14   47 1
  28   14   48 1
  29   15   16 ar
  30   15   49 1
  31   16   17 ar
  32   16   20 1
  33   17   18 ar
  34   17   21 1
  35   18   19 1
  36   21   22 am
  37   21   23 2
  38   22   24 1
  39   22   50 1
  40   24   25 1
  41   24   28 1
  42   24   51 1
  43   25   26 1
  44   25   27 2
  45   26   52 1
  46   28   29 1
  47   28   53 1
  48   28   54 1
  49   29   31 ar
  50   29   32 ar
  51   31   35 ar
  52   31   55 1
  53   32   33 ar
  54   32   56 1
  55   33   34 ar
  56   33   57 1
  57   34   35 ar
  58   34   58 1
  59   35   36 1
  60   36   37 1
  61   36   38 1
  62   36   59 1
  63   37   60 1
  64   37   61 1
  65   37   62 1
  66   38   63 1
  67   38   64 1
  68   38   65 1

#	End of record

