#	Name: ASD01910856
#	Creating user name:	WinNT
#	Creation time:	15. 06. 2019 19:56

#	Modifying user name:	WinNT
#	Modification time:	15. 06. 2019 19:56

#	Program:	/corina/corina34_cracker 3.40 0067  02.08.2006

@<TRIPOS>MOLECULE
ASD01910856
  54   57    0    0    0
SMALL
NO_CHARGES


@<TRIPOS>ATOM
   1 C1            -0.0168     1.3842     0.0097 C.ar    
   2 C2             0.0021    -0.0041     0.0020 C.ar    
   3 C3             1.2266    -0.6477    -0.0131 C.ar    
   4 C4             2.3908     0.1134    -0.0202 C.ar    
   5 N5             2.3311     1.4363    -0.0120 N.ar    
   6 C6             1.1776     2.0767     0.0020 C.ar    
   7 N7             3.6279    -0.5202    -0.0354 N.3     
   8 C8             4.7221     0.4608    -0.0406 C.3     
   9 C9             6.0630    -0.2742     0.0230 C.3     
  10 N10            6.1729    -1.1874    -1.1231 N.3     
  11 C11            5.0788    -2.1685    -1.1179 C.3     
  12 C12            3.7378    -1.4334    -1.1815 C.3     
  13 C13            7.4803    -1.8571    -1.1392 C.3     
  14 C14            7.4693    -2.9558    -2.1705 C.ar    
  15 C15            7.8509    -2.6841    -3.4725 C.ar    
  16 C16            7.8445    -3.6867    -4.4266 C.ar    
  17 C17            7.4566    -4.9652    -4.0856 C.ar    
  18 C18            7.0697    -5.2475    -2.7722 C.ar    
  19 C19            7.0843    -4.2311    -1.8130 C.ar    
  20 C20            6.6657    -6.5728    -2.4101 C.1     
  21 C21            6.3344    -7.6593    -2.1133 C.1     
  22 C22            5.9303    -8.9845    -1.7513 C.2     
  23 C23            5.5736    -9.2057    -0.5021 C.2     
  24 C24            5.1382   -10.5453     0.0164 C.3     
  25 C25            4.7635   -11.4643    -1.1481 C.3     
  26 C26            5.8989   -11.4322    -2.1786 C.3     
  27 C27            5.9317   -10.0407    -2.8178 C.3     
  28 H28           -0.9562     1.9169     0.0170 H       
  29 H29           -0.9185    -0.5688     0.0081 H       
  30 H30            1.2778    -1.7264    -0.0191 H       
  31 H31            1.1676     3.1567     0.0082 H       
  32 H32            4.6750     1.0532    -0.9543 H       
  33 H33            4.6259     1.1174     0.8242 H       
  34 H34            6.8767     0.4503    -0.0099 H       
  35 H35            6.1212    -0.8451     0.9497 H       
  36 H36            5.1749    -2.8250    -1.9827 H       
  37 H37            5.1258    -2.7608    -0.2041 H       
  38 H38            2.9241    -2.1579    -1.1485 H       
  39 H39            3.6796    -0.8626    -2.1082 H       
  40 H40            8.2563    -1.1331    -1.3878 H       
  41 H41            7.6824    -2.2832    -0.1565 H       
  42 H42            8.1550    -1.6844    -3.7457 H       
  43 H43            8.1437    -3.4671    -5.4408 H       
  44 H44            7.4515    -5.7464    -4.8313 H       
  45 H45            6.7870    -4.4418    -0.7963 H       
  46 H46            5.5962    -8.3755     0.1883 H       
  47 H47            5.9526   -10.9952     0.5842 H       
  48 H48            4.2738   -10.4170     0.6680 H       
  49 H49            4.6294   -12.4824    -0.7827 H       
  50 H50            3.8404   -11.1132    -1.6093 H       
  51 H51            6.8487   -11.6340    -1.6834 H       
  52 H52            5.7169   -12.1830    -2.9475 H       
  53 H53            5.0587    -9.9168    -3.4586 H       
  54 H54            6.8356    -9.9402    -3.4186 H       
@<TRIPOS>BOND
   1    1    2 ar
   2    1    6 ar
   3    1   28 1
   4    2    3 ar
   5    2   29 1
   6    3    4 ar
   7    3   30 1
   8    4    5 ar
   9    4    7 1
  10    5    6 ar
  11    6   31 1
  12    7    8 1
  13    7   12 1
  14    8    9 1
  15    8   32 1
  16    8   33 1
  17    9   10 1
  18    9   34 1
  19    9   35 1
  20   10   11 1
  21   10   13 1
  22   11   12 1
  23   11   36 1
  24   11   37 1
  25   12   38 1
  26   12   39 1
  27   13   14 1
  28   13   40 1
  29   13   41 1
  30   14   15 ar
  31   14   19 ar
  32   15   16 ar
  33   15   42 1
  34   16   17 ar
  35   16   43 1
  36   17   18 ar
  37   17   44 1
  38   18   19 ar
  39   18   20 1
  40   19   45 1
  41   20   21 3
  42   21   22 1
  43   22   23 2
  44   22   27 1
  45   23   24 1
  46   23   46 1
  47   24   25 1
  48   24   47 1
  49   24   48 1
  50   25   26 1
  51   25   49 1
  52   25   50 1
  53   26   27 1
  54   26   51 1
  55   26   52 1
  56   27   53 1
  57   27   54 1

#	End of record

