#	Name: ASD01870728
#	Creating user name:	WinNT
#	Creation time:	15. 06. 2019 19:39

#	Modifying user name:	WinNT
#	Modification time:	15. 06. 2019 19:39

#	Program:	/corina/corina34_cracker 3.40 0067  02.08.2006

@<TRIPOS>MOLECULE
ASD01870728
  48   50    0    0    0
SMALL
NO_CHARGES


@<TRIPOS>ATOM
   1 O1            -0.0173     1.4248     0.0099 O.3     
   2 O2            -0.7378    -4.6791     0.2146 O.2     
   3 N3            -3.2630    -6.8289    -5.1384 N.ar    
   4 C4            -1.2193    -2.5669    -0.7214 C.3     
   5 C5            -1.2124    -2.0647     0.7238 C.3     
   6 C6             0.0160    -2.0361    -1.4516 C.3     
   7 C7             0.0021    -0.0041     0.0020 C.3     
   8 C8            -1.2332    -0.5349     0.7323 C.3     
   9 C9            -0.0048    -0.5063    -1.4432 C.3     
  10 C10           -1.1989    -4.0738    -0.7297 C.2     
  11 C11           -1.7381    -4.8101    -1.8828 C.ar    
  12 C12           -1.7175    -6.1987    -1.8869 C.ar    
  13 C13            1.2801     2.0237     0.0007 C.3     
  14 C14           -2.2733    -4.1034    -2.9777 C.ar    
  15 C15           -2.2343    -6.8905    -2.9904 C.ar    
  16 C16           -2.7706    -6.1683    -4.0868 C.ar    
  17 C17           -2.7767    -4.7605    -4.0519 C.ar    
  18 C18           -2.2330    -8.2987    -3.0346 C.ar    
  19 C19           -2.7520    -8.9093    -4.1410 C.ar    
  20 C20           -3.2631    -8.1397    -5.1831 C.ar    
  21 C21           -2.7717   -10.4133    -4.2335 C.3     
  22 C22           -3.8322    -8.8318    -6.3948 C.3     
  23 C23           -1.5363   -10.8936    -4.9976 C.3     
  24 H24           -2.1190    -2.2130    -1.2247 H       
  25 H25           -2.0925    -2.4429     1.2441 H       
  26 H26           -0.3128    -2.4187     1.2272 H       
  27 H27            0.9157    -2.3900    -0.9482 H       
  28 H28            0.0111    -2.3939    -2.4812 H       
  29 H29            0.9018    -0.3580     0.5054 H       
  30 H30           -2.1329    -0.1810     0.2289 H       
  31 H31           -1.2283    -0.1771     1.7619 H       
  32 H32            0.8752    -0.1281    -1.9634 H       
  33 H33           -0.9045    -0.1523    -1.9466 H       
  34 H34           -1.3068    -6.7402    -1.0475 H       
  35 H35            1.8338     1.7047     0.8837 H       
  36 H36            1.8168     1.7143    -0.8961 H       
  37 H37            1.1793     3.1090     0.0075 H       
  38 H38           -2.2833    -3.0236    -2.9612 H       
  39 H39           -3.1831    -4.2028    -4.8827 H       
  40 H40           -1.8321    -8.8793    -2.2169 H       
  41 H41           -2.7666   -10.8391    -3.2301 H       
  42 H42           -3.6713   -10.7332    -4.7594 H       
  43 H43           -3.0427    -8.9836    -7.1308 H       
  44 H44           -4.2458    -9.7967    -6.1014 H       
  45 H45           -4.6198    -8.2158    -6.8287 H       
  46 H46           -1.5505   -11.9814    -5.0645 H       
  47 H47           -1.5414   -10.4678    -6.0010 H       
  48 H48           -0.6367   -10.5737    -4.4717 H       
@<TRIPOS>BOND
   1    1    7 1
   2    1   13 1
   3    2   10 2
   4    3   16 ar
   5    3   20 ar
   6    4    5 1
   7    4    6 1
   8    4   10 1
   9    4   24 1
  10    5    8 1
  11    5   25 1
  12    5   26 1
  13    6    9 1
  14    6   27 1
  15    6   28 1
  16    7    8 1
  17    7    9 1
  18    7   29 1
  19    8   30 1
  20    8   31 1
  21    9   32 1
  22    9   33 1
  23   10   11 1
  24   11   12 ar
  25   11   14 ar
  26   12   15 ar
  27   12   34 1
  28   13   35 1
  29   13   36 1
  30   13   37 1
  31   14   17 ar
  32   14   38 1
  33   15   16 ar
  34   15   18 ar
  35   16   17 ar
  36   17   39 1
  37   18   19 ar
  38   18   40 1
  39   19   20 ar
  40   19   21 1
  41   20   22 1
  42   21   23 1
  43   21   41 1
  44   21   42 1
  45   22   43 1
  46   22   44 1
  47   22   45 1
  48   23   46 1
  49   23   47 1
  50   23   48 1

#	End of record

