#	Name: ASD01914116
#	Creating user name:	WinNT
#	Creation time:	15. 06. 2019 20:02

#	Modifying user name:	WinNT
#	Modification time:	15. 06. 2019 20:02

#	Program:	/corina/corina34_cracker 3.40 0067  02.08.2006

@<TRIPOS>MOLECULE
ASD01914116
  34   36    0    0    0
SMALL
NO_CHARGES


@<TRIPOS>ATOM
   1 S1            -0.0211     1.7022     0.0114 S.3     
   2 C2             0.0021    -0.0041     0.0020 C.2     
   3 N3             1.1983    -0.4573    -0.0118 N.2     
   4 C4             2.2084     0.4332    -0.0167 C.ar    
   5 C5             1.7390     1.7516    -0.0051 C.ar    
   6 C6             2.6368     2.8166    -0.0080 C.ar    
   7 C7             3.9920     2.5733    -0.0222 C.ar    
   8 C8             4.4640     1.2686    -0.0338 C.ar    
   9 C9             3.6006     0.2150    -0.0319 C.ar    
  10 C10           -1.2322    -0.8687     0.0096 C.3     
  11 C11           -1.6359    -1.1686     1.4546 C.3     
  12 C12           -2.8415    -2.0132     1.4620 C.1     
  13 C13           -3.8030    -2.6868     1.4680 C.1     
  14 C14           -4.9758    -3.5085     1.4752 C.ar    
  15 C15           -5.5311    -3.9118     2.6901 C.ar    
  16 C16           -6.6642    -4.7054     2.6803 C.ar    
  17 C17           -7.2069    -5.0712     1.4561 C.ar    
  18 C18           -6.6054    -4.6360     0.2897 C.ar    
  19 N19           -5.5297    -3.8763     0.3256 N.ar    
  20 C20            4.1376    -1.1930    -0.0446 C.3     
  21 H21            2.2702     3.8324     0.0006 H       
  22 H22            4.6883     3.3988    -0.0248 H       
  23 H23            5.5284     1.0862    -0.0449 H       
  24 H24           -2.0453    -0.3457    -0.4938 H       
  25 H25           -1.0241    -1.8035    -0.5109 H       
  26 H26           -0.8228    -1.6916     1.9580 H       
  27 H27           -1.8440    -0.2338     1.9752 H       
  28 H28           -5.0825    -3.6090     3.6247 H       
  29 H29           -7.1164    -5.0335     3.6046 H       
  30 H30           -8.0909    -5.6903     1.4151 H       
  31 H31           -7.0255    -4.9195    -0.6640 H       
  32 H32            4.2567    -1.5272    -1.0753 H       
  33 H33            5.1037    -1.2180     0.4594 H       
  34 H34            3.4407    -1.8523     0.4729 H       
@<TRIPOS>BOND
   1    1    2 1
   2    1    5 1
   3    2    3 2
   4    2   10 1
   5    3    4 1
   6    4    5 ar
   7    4    9 ar
   8    5    6 ar
   9    6    7 ar
  10    6   21 1
  11    7    8 ar
  12    7   22 1
  13    8    9 ar
  14    8   23 1
  15    9   20 1
  16   10   11 1
  17   10   24 1
  18   10   25 1
  19   11   12 1
  20   11   26 1
  21   11   27 1
  22   12   13 3
  23   13   14 1
  24   14   15 ar
  25   14   19 ar
  26   15   16 ar
  27   15   28 1
  28   16   17 ar
  29   16   29 1
  30   17   18 ar
  31   17   30 1
  32   18   19 ar
  33   18   31 1
  34   20   32 1
  35   20   33 1
  36   20   34 1

#	End of record

