#	Name: ASD01900931
#	Creating user name:	WinNT
#	Creation time:	15. 06. 2019 19:52

#	Modifying user name:	WinNT
#	Modification time:	15. 06. 2019 19:52

#	Program:	/corina/corina34_cracker 3.40 0067  02.08.2006

@<TRIPOS>MOLECULE
ASD01900931
  40   42    0    0    0
SMALL
NO_CHARGES


@<TRIPOS>ATOM
   1 C1            -0.0170     1.4820    -0.7411 C.ar    
   2 C2             0.0044     0.1505    -1.1514 C.ar    
   3 C3             1.2242    -0.4939    -1.2822 C.ar    
   4 C4             2.3808     0.2156    -0.9980 C.ar    
   5 C5             2.2849     1.5377    -0.5947 C.ar    
   6 N6             1.1140     2.1253    -0.4787 N.ar    
   7 C7            -1.3122     2.1870    -0.6024 C.2     
   8 O8            -2.3504     1.6042    -0.8461 O.2     
   9 N9            -1.3393     3.4748    -0.2059 N.am    
  10 S10           -2.7351     5.7632     0.4162 S.3     
  11 C11           -2.5537     4.1359    -0.0758 C.2     
  12 N12           -3.7148     3.6091    -0.3105 N.2     
  13 C13           -4.7688     4.3841    -0.1361 C.2     
  14 C14           -4.4849     5.6248     0.2652 C.2     
  15 C15           -6.1787     3.9067    -0.3714 C.3     
  16 S16           -5.6556     6.9016     0.5876 S.o2    
  17 O17           -6.8047     6.2121     1.0603 O.2     
  18 O18           -4.9561     7.8164     1.4201 O.2     
  19 C19           -5.9796     7.6395    -1.0375 C.3     
  20 C20           -6.9788     8.7581    -0.8910 C.ar    
  21 C21           -6.5427    10.0485    -0.6496 C.ar    
  22 C22           -7.4603    11.0750    -0.5152 C.ar    
  23 C23           -8.8133    10.8121    -0.6216 C.ar    
  24 C24           -9.2507     9.5237    -0.8627 C.ar    
  25 C25           -8.3333     8.4959    -1.0037 C.ar    
  26 F26           -8.7602     7.2371    -1.2454 F       
  27 Cl27          -4.8439    10.3796    -0.5147 Cl      
  28 H28           -0.9166    -0.3718    -1.3642 H       
  29 H29            1.2727    -1.5256    -1.5980 H       
  30 H30            3.3472    -0.2577    -1.0897 H       
  31 H31            3.1840     2.0933    -0.3725 H       
  32 H32           -0.5106     3.9400    -0.0113 H       
  33 H33           -6.6133     3.5779     0.5726 H       
  34 H34           -6.7747     4.7221    -0.7813 H       
  35 H35           -6.1678     3.0749    -1.0757 H       
  36 H36           -5.0506     8.0338    -1.4493 H       
  37 H37           -6.3807     6.8796    -1.7081 H       
  38 H38           -7.1195    12.0823    -0.3267 H       
  39 H39           -9.5289    11.6140    -0.5158 H       
  40 H40          -10.3079     9.3189    -0.9457 H       
@<TRIPOS>BOND
   1    1    2 ar
   2    1    6 ar
   3    1    7 1
   4    2    3 ar
   5    2   28 1
   6    3    4 ar
   7    3   29 1
   8    4    5 ar
   9    4   30 1
  10    5    6 ar
  11    5   31 1
  12    7    8 2
  13    7    9 am
  14    9   11 1
  15    9   32 1
  16   10   11 1
  17   10   14 1
  18   11   12 2
  19   12   13 1
  20   13   14 2
  21   13   15 1
  22   14   16 1
  23   15   33 1
  24   15   34 1
  25   15   35 1
  26   16   17 2
  27   16   18 2
  28   16   19 1
  29   19   20 1
  30   19   36 1
  31   19   37 1
  32   20   21 ar
  33   20   25 ar
  34   21   22 ar
  35   21   27 1
  36   22   23 ar
  37   22   38 1
  38   23   24 ar
  39   23   39 1
  40   24   25 ar
  41   24   40 1
  42   25   26 1

#	End of record

