#	Name: ASD07300197
#	Creating user name:	WinNT
#	Creation time:	15. 06. 2019 21:09

#	Modifying user name:	WinNT
#	Modification time:	15. 06. 2019 21:09

#	Program:	/corina/corina34_cracker 3.40 0067  02.08.2006

@<TRIPOS>MOLECULE
ASD07300197
  51   55    0    0    0
SMALL
NO_CHARGES


@<TRIPOS>ATOM
   1 C1            -0.0129     1.4060    -0.2491 C.ar    
   2 C2             0.0105     0.0079    -0.2588 C.ar    
   3 C3             1.2257    -0.6509    -0.3713 C.ar    
   4 C4             2.3796     0.1131    -0.4705 C.ar    
   5 C5             2.2825     1.4917    -0.4542 C.ar    
   6 N6             1.1134     2.0929    -0.3462 N.ar    
   7 C7            -2.0985     0.6664    -0.0573 C.2     
   8 N8            -1.3457     1.7803    -0.1220 N.am    
   9 N9            -1.3084    -0.4208    -0.1430 N.am    
  10 O10           -3.3097     0.6450     0.0568 O.2     
  11 C11           -1.8253     3.0975    -0.0691 C.ar    
  12 C12           -3.1871     3.3361     0.0599 C.ar    
  13 C13           -3.6586     4.6325     0.1123 C.ar    
  14 C14           -2.7719     5.6972     0.0357 C.ar    
  15 C15           -1.4113     5.4593    -0.0932 C.ar    
  16 C16           -0.9382     4.1627    -0.1400 C.ar    
  17 O17           -3.2368     6.9738     0.0865 O.3     
  18 C18           -2.3328     7.9755     0.1838 C.2     
  19 N19           -1.0472     7.8121     0.3593 N.2     
  20 C20           -0.4360     9.0246     0.4122 C.ar    
  21 C21           -1.4369     9.9980     0.2554 C.ar    
  22 N22           -2.6265     9.3055     0.1076 N.pl3   
  23 C23            0.8918     9.4244     0.5795 C.ar    
  24 C24            1.2062    10.7651     0.5893 C.ar    
  25 C25            0.2143    11.7219     0.4346 C.ar    
  26 C26           -1.1020    11.3434     0.2682 C.ar    
  27 C27           -3.9543     9.8920    -0.0904 C.3     
  28 C28           -5.1366     4.8916     0.2523 C.3     
  29 C29           -1.7588    -1.8145    -0.1107 C.3     
  30 C30           -1.7867    -2.3081     1.3372 C.3     
  31 H31            1.2726    -1.7298    -0.3811 H       
  32 H32            3.3441    -0.3647    -0.5592 H       
  33 H33            3.1800     2.0875    -0.5314 H       
  34 H34           -3.8774     2.5075     0.1188 H       
  35 H35           -0.7215     6.2882    -0.1528 H       
  36 H36            0.1215     3.9776    -0.2358 H       
  37 H37            1.6691     8.6846     0.7012 H       
  38 H38            2.2330    11.0737     0.7187 H       
  39 H39            0.4740    12.7701     0.4448 H       
  40 H40           -1.8697    12.0935     0.1477 H       
  41 H41           -4.4230    10.0654     0.8782 H       
  42 H42           -3.8577    10.8387    -0.6220 H       
  43 H43           -4.5700     9.2083    -0.6748 H       
  44 H44           -5.3971     4.9475     1.3093 H       
  45 H45           -5.3879     5.8341    -0.2342 H       
  46 H46           -5.6936     4.0806    -0.2168 H       
  47 H47           -2.7595    -1.8829    -0.5372 H       
  48 H48           -1.0732    -2.4314    -0.6917 H       
  49 H49           -0.7859    -2.2396     1.7638 H       
  50 H50           -2.4722    -1.6911     1.9182 H       
  51 H51           -2.1218    -3.3450     1.3612 H       
@<TRIPOS>BOND
   1    1    2 ar
   2    1    6 ar
   3    1    8 1
   4    2    3 ar
   5    2    9 1
   6    3    4 ar
   7    3   31 1
   8    4    5 ar
   9    4   32 1
  10    5    6 ar
  11    5   33 1
  12    7    8 am
  13    7    9 am
  14    7   10 2
  15    8   11 1
  16    9   29 1
  17   11   12 ar
  18   11   16 ar
  19   12   13 ar
  20   12   34 1
  21   13   14 ar
  22   13   28 1
  23   14   15 ar
  24   14   17 1
  25   15   16 ar
  26   15   35 1
  27   16   36 1
  28   17   18 1
  29   18   19 2
  30   18   22 1
  31   19   20 1
  32   20   21 ar
  33   20   23 ar
  34   21   22 1
  35   21   26 ar
  36   22   27 1
  37   23   24 ar
  38   23   37 1
  39   24   25 ar
  40   24   38 1
  41   25   26 ar
  42   25   39 1
  43   26   40 1
  44   27   41 1
  45   27   42 1
  46   27   43 1
  47   28   44 1
  48   28   45 1
  49   28   46 1
  50   29   30 1
  51   29   47 1
  52   29   48 1
  53   30   49 1
  54   30   50 1
  55   30   51 1

#	End of record

