#	Name: ASD01900875
#	Creating user name:	WinNT
#	Creation time:	15. 06. 2019 19:52

#	Modifying user name:	WinNT
#	Modification time:	15. 06. 2019 19:52

#	Program:	/corina/corina34_cracker 3.40 0067  02.08.2006

@<TRIPOS>MOLECULE
ASD01900875
  59   63    0    0    0
SMALL
NO_CHARGES


@<TRIPOS>ATOM
   1 C1             2.2987     0.3928     0.4133 C.ar    
   2 C2             2.7351    -0.9069     0.2659 C.ar    
   3 C3             4.0622    -1.1730    -0.0385 C.ar    
   4 C4             4.9688    -0.1401    -0.1914 C.ar    
   5 C5             4.5475     1.1697    -0.0404 C.ar    
   6 C6             3.1997     1.4433     0.2538 C.ar    
   7 N7             5.4259     2.2403    -0.1652 N.pl3   
   8 C8             4.9039     3.5348    -0.6175 C.3     
   9 N9             3.6364     3.8321     0.0506 N.am    
  10 C10            2.7816     2.8486     0.3951 C.2     
  11 C11            3.3059     5.1624     0.3378 C.ar    
  12 C12            3.8923     5.8059     1.4196 C.ar    
  13 C13            3.5663     7.1177     1.7019 C.ar    
  14 C14            2.6531     7.7926     0.9051 C.ar    
  15 C15            2.0664     7.1503    -0.1755 C.ar    
  16 C16            2.3958     5.8403    -0.4624 C.ar    
  17 O17            2.3325     9.0843     1.1837 O.3     
  18 O18            1.6740     3.1192     0.8186 O.2     
  19 C19            1.4096     9.7282     0.3029 C.3     
  20 C20            5.9212     4.6320    -0.2906 C.3     
  21 C21            4.6843     3.4905    -2.1324 C.3     
  22 C22            4.2050     4.8623    -2.6128 C.3     
  23 N23            5.2089     5.8792    -2.2748 N.3     
  24 C24            5.4052     5.9712    -0.8225 C.3     
  25 C25            4.8465     7.1854    -2.8409 C.3     
  26 C26            5.8441     8.2218    -2.3917 C.ar    
  27 C27            5.5085     9.1185    -1.3956 C.ar    
  28 C28            6.4232    10.0694    -0.9831 C.ar    
  29 C29            7.6761    10.1256    -1.5658 C.ar    
  30 C30            8.0164     9.2314    -2.5620 C.ar    
  31 C31            7.1020     8.2726    -2.9741 C.ar    
  32 Br32           4.6361    -2.9628    -0.2456 Br      
  33 F33            0.1936     9.0365     0.3149 F       
  34 F34            1.2014    11.0449     0.7270 F       
  35 F35            1.9303     9.7333    -0.9956 F       
  36 O36            7.4365     7.3881    -3.9501 O.3     
  37 H37            1.2638     0.5954     0.6465 H       
  38 H38            2.0390    -1.7234     0.3887 H       
  39 H39            6.0008    -0.3544    -0.4270 H       
  40 H40            6.3672     2.1332     0.0428 H       
  41 H41            4.6031     5.2804     2.0402 H       
  42 H42            4.0221     7.6182     2.5434 H       
  43 H43            1.3553     7.6763    -0.7951 H       
  44 H44            1.9426     5.3419    -1.3065 H       
  45 H45            6.0537     4.6958     0.7894 H       
  46 H46            6.8753     4.3962    -0.7621 H       
  47 H47            5.6213     3.2379    -2.6288 H       
  48 H48            3.9318     2.7385    -2.3693 H       
  49 H49            4.0613     4.8389    -3.6930 H       
  50 H50            3.2611     5.1080    -2.1263 H       
  51 H51            4.4567     6.2115    -0.3423 H       
  52 H52            6.1318     6.7535    -0.6030 H       
  53 H53            4.8515     7.1238    -3.9291 H       
  54 H54            3.8509     7.4665    -2.4975 H       
  55 H55            4.5306     9.0767    -0.9391 H       
  56 H56            6.1587    10.7699    -0.2049 H       
  57 H57            8.3889    10.8694    -1.2418 H       
  58 H58            8.9949     9.2759    -3.0169 H       
  59 H59            7.2275     7.6915    -4.8442 H       
@<TRIPOS>BOND
   1    1    2 ar
   2    1    6 ar
   3    1   37 1
   4    2    3 ar
   5    2   38 1
   6    3    4 ar
   7    3   32 1
   8    4    5 ar
   9    4   39 1
  10    5    7 1
  11    5    6 ar
  12    6   10 1
  13    7    8 1
  14    7   40 1
  15    8    9 1
  16    8   21 1
  17    8   20 1
  18    9   10 am
  19    9   11 1
  20   10   18 2
  21   11   12 ar
  22   11   16 ar
  23   12   13 ar
  24   12   41 1
  25   13   14 ar
  26   13   42 1
  27   14   15 ar
  28   14   17 1
  29   15   16 ar
  30   15   43 1
  31   16   44 1
  32   17   19 1
  33   19   33 1
  34   19   34 1
  35   19   35 1
  36   20   24 1
  37   20   45 1
  38   20   46 1
  39   21   22 1
  40   21   47 1
  41   21   48 1
  42   22   23 1
  43   22   49 1
  44   22   50 1
  45   23   24 1
  46   23   25 1
  47   24   51 1
  48   24   52 1
  49   25   26 1
  50   25   53 1
  51   25   54 1
  52   26   27 ar
  53   26   31 ar
  54   27   28 ar
  55   27   55 1
  56   28   29 ar
  57   28   56 1
  58   29   30 ar
  59   29   57 1
  60   30   31 ar
  61   30   58 1
  62   31   36 1
  63   36   59 1

#	End of record

