#	Name: ASD01816392
#	Creating user name:	WinNT
#	Creation time:	15. 06. 2019 19:35

#	Modifying user name:	WinNT
#	Modification time:	15. 06. 2019 19:35

#	Program:	/corina/corina34_cracker 3.40 0067  02.08.2006

@<TRIPOS>MOLECULE
ASD01816392
  56   61    0    0    0
SMALL
NO_CHARGES


@<TRIPOS>ATOM
   1 C1            -0.0167     1.3813     0.0096 C.ar    
   2 C2             0.0021    -0.0041     0.0020 C.ar    
   3 C3             1.1983    -0.6909    -0.0127 C.ar    
   4 C4             2.4015     0.0059    -0.0204 C.ar    
   5 C5             2.3790     1.4106    -0.0132 C.ar    
   6 C6             1.1662     2.0917     0.0022 C.ar    
   7 N7             3.6052    -0.6771    -0.0347 N.pl3   
   8 C8             4.7970    -0.0585    -0.0423 C.2     
   9 C9             4.8999     1.3104    -0.0364 C.2     
  10 C10            3.6669     2.1302    -0.0217 C.2     
  11 C11            5.9971     2.2731    -0.0410 C.2     
  12 N12            5.4245     3.4962    -0.0300 N.am    
  13 N13            4.0322     3.3800    -0.0186 N.2     
  14 O14            7.1911     2.0232    -0.0522 O.2     
  15 C15            3.5778    -2.1419    -0.0413 C.3     
  16 C16            3.5554    -2.6375    -1.4643 C.ar    
  17 C17            4.7432    -2.8867    -2.1270 C.ar    
  18 C18            4.7259    -3.3405    -3.4313 C.ar    
  19 C19            3.5142    -3.5469    -4.0770 C.ar    
  20 C20            2.3233    -3.2962    -3.4089 C.ar    
  21 C21            2.3470    -2.8474    -2.1029 C.ar    
  22 N22            3.4933    -4.0070    -5.4010 N.pl3   
  23 C23            2.3885    -4.2483    -6.1424 C.2     
  24 C24            2.7951    -4.6776    -7.3595 C.2     
  25 C25            4.1941    -4.7000    -7.3633 C.2     
  26 N26            4.6135    -4.2926    -6.1923 N.2     
  27 C27            6.1221     4.7010    -0.0293 C.ar    
  28 C28            7.0595     4.9653    -1.0184 C.ar    
  29 C29            7.7498     6.1608    -1.0161 C.ar    
  30 C30            7.5151     7.1062    -0.0300 C.ar    
  31 C31            6.5897     6.8639     0.9609 C.ar    
  32 C32            5.8768     5.6595     0.9702 C.ar    
  33 C33            4.8887     5.3938     2.0222 C.2     
  34 O34            4.2732     4.3485     2.0263 O.2     
  35 C35            4.6387     6.4196     3.0976 C.3     
  36 H36           -0.9602     1.9069     0.0170 H       
  37 H37           -0.9289    -0.5515     0.0080 H       
  38 H38            1.2003    -1.7709    -0.0178 H       
  39 H39            1.1506     3.1715     0.0081 H       
  40 H40            5.6982    -0.6535    -0.0530 H       
  41 H41            4.4656    -2.5241     0.4626 H       
  42 H42            2.6860    -2.4910     0.4791 H       
  43 H43            5.6854    -2.7260    -1.6242 H       
  44 H44            5.6539    -3.5344    -3.9486 H       
  45 H45            1.3792    -3.4554    -3.9087 H       
  46 H46            1.4209    -2.6522    -1.5826 H       
  47 H47            1.3653    -4.1216    -5.8207 H       
  48 H48            2.1531    -4.9543    -8.1828 H       
  49 H49            4.8202    -4.9977    -8.1914 H       
  50 H50            7.2493     4.2345    -1.7906 H       
  51 H51            8.4782     6.3607    -1.7880 H       
  52 H52            8.0613     8.0379    -0.0385 H       
  53 H53            6.4112     7.6040     1.7269 H       
  54 H54            5.2789     7.2856     2.9295 H       
  55 H55            3.5939     6.7291     3.0686 H       
  56 H56            4.8623     5.9861     4.0723 H       
@<TRIPOS>BOND
   1    1    2 ar
   2    1    6 ar
   3    1   36 1
   4    2    3 ar
   5    2   37 1
   6    3    4 ar
   7    3   38 1
   8    4    5 ar
   9    4    7 1
  10    5    6 ar
  11    5   10 1
  12    6   39 1
  13    7    8 1
  14    7   15 1
  15    8    9 2
  16    8   40 1
  17    9   10 1
  18    9   11 1
  19   10   13 2
  20   11   12 am
  21   11   14 2
  22   12   13 1
  23   12   27 1
  24   15   16 1
  25   15   41 1
  26   15   42 1
  27   16   17 ar
  28   16   21 ar
  29   17   18 ar
  30   17   43 1
  31   18   19 ar
  32   18   44 1
  33   19   20 ar
  34   19   22 1
  35   20   21 ar
  36   20   45 1
  37   21   46 1
  38   22   23 1
  39   22   26 1
  40   23   24 2
  41   23   47 1
  42   24   25 1
  43   24   48 1
  44   25   26 2
  45   25   49 1
  46   27   28 ar
  47   27   32 ar
  48   28   29 ar
  49   28   50 1
  50   29   30 ar
  51   29   51 1
  52   30   31 ar
  53   30   52 1
  54   31   32 ar
  55   31   53 1
  56   32   33 1
  57   33   34 2
  58   33   35 1
  59   35   54 1
  60   35   55 1
  61   35   56 1

#	End of record

