#	Name: ASD01814072
#	Creating user name:	WinNT
#	Creation time:	15. 06. 2019 19:31

#	Modifying user name:	WinNT
#	Modification time:	15. 06. 2019 19:31

#	Program:	/corina/corina34_cracker 3.40 0067  02.08.2006

@<TRIPOS>MOLECULE
ASD01814072
  51   55    0    0    0
SMALL
NO_CHARGES


@<TRIPOS>ATOM
   1 C1             1.1550     2.2510    -0.5134 C.ar    
   2 C2             0.7788     0.9157    -0.4983 C.ar    
   3 C3             1.7215    -0.0800    -0.3469 C.ar    
   4 C4             3.0685     0.2527    -0.2070 C.ar    
   5 C5             3.4450     1.6060    -0.2229 C.ar    
   6 C6             2.4801     2.6015    -0.3768 C.ar    
   7 N7             4.0210    -0.7324    -0.0539 N.pl3   
   8 C8             5.3254    -0.4649     0.0853 C.2     
   9 C9             5.8157     0.8256     0.0858 C.2     
  10 C10            4.8728     1.9443    -0.0741 C.2     
  11 O11            5.2553     3.1013    -0.0806 O.2     
  12 C12            7.2550     1.0781     0.2423 C.2     
  13 O13            7.7216     2.3428     0.2411 O.3     
  14 O14            8.0249     0.1464     0.3728 O.2     
  15 C15            3.5871    -2.1316    -0.0427 C.3     
  16 C16            3.4445    -2.6248    -1.4595 C.ar    
  17 C17            4.5267    -2.5715    -2.3222 C.ar    
  18 C18            4.3975    -3.0239    -3.6233 C.ar    
  19 C19            3.1824    -3.5313    -4.0622 C.ar    
  20 C20            2.0998    -3.5833    -3.1936 C.ar    
  21 C21            2.2352    -3.1349    -1.8944 C.ar    
  22 N22            3.0480    -3.9896    -5.3788 N.pl3   
  23 F23            1.3401    -1.3760    -0.3337 F       
  24 C24            2.7999    -5.2965    -5.7418 C.ar    
  25 C25            2.7367    -5.3319    -7.1467 C.ar    
  26 C26            2.9642    -3.9565    -7.5979 C.2     
  27 C27            3.1376    -3.2055    -6.4989 C.2     
  28 F28            5.7086    -2.0774    -1.8932 F       
  29 C29            2.6194    -6.4725    -5.0215 C.ar    
  30 C30            2.3817    -7.6541    -5.6890 C.ar    
  31 C31            2.3202    -7.6840    -7.0755 C.ar    
  32 C32            2.4943    -6.5403    -7.8027 C.ar    
  33 C33            3.4001    -1.7215    -6.4975 C.3     
  34 H34            0.4060     3.0191    -0.6373 H       
  35 H35           -0.2633     0.6531    -0.6059 H       
  36 H36            2.7705     3.6416    -0.3892 H       
  37 H37            6.0171    -1.2861     0.2015 H       
  38 H38            8.6757     2.4589     0.3471 H       
  39 H39            4.3272    -2.7374     0.4801 H       
  40 H40            2.6272    -2.2102     0.4677 H       
  41 H41            5.2409    -2.9819    -4.2966 H       
  42 H42            1.1533    -3.9773    -3.5331 H       
  43 H43            1.3931    -3.1756    -1.2194 H       
  44 H44            2.9845    -3.6115    -8.6211 H       
  45 H45            2.6657    -6.4595    -3.9426 H       
  46 H46            2.2421    -8.5663    -5.1279 H       
  47 H47            2.1330    -8.6185    -7.5834 H       
  48 H48            2.4449    -6.5710    -8.8811 H       
  49 H49            2.4521    -1.1849    -6.4603 H       
  50 H50            4.0003    -1.4595    -5.6262 H       
  51 H51            3.9377    -1.4468    -7.4050 H       
@<TRIPOS>BOND
   1    1    2 ar
   2    1    6 ar
   3    1   34 1
   4    2    3 ar
   5    2   35 1
   6    3    4 ar
   7    3   23 1
   8    4    5 ar
   9    4    7 1
  10    5    6 ar
  11    5   10 1
  12    6   36 1
  13    7    8 1
  14    7   15 1
  15    8    9 2
  16    8   37 1
  17    9   10 1
  18    9   12 1
  19   10   11 2
  20   12   13 1
  21   12   14 2
  22   13   38 1
  23   15   16 1
  24   15   39 1
  25   15   40 1
  26   16   17 ar
  27   16   21 ar
  28   17   18 ar
  29   17   28 1
  30   18   19 ar
  31   18   41 1
  32   19   20 ar
  33   19   22 1
  34   20   21 ar
  35   20   42 1
  36   21   43 1
  37   22   24 1
  38   22   27 1
  39   24   25 ar
  40   24   29 ar
  41   25   26 1
  42   25   32 ar
  43   26   27 2
  44   26   44 1
  45   27   33 1
  46   29   30 ar
  47   29   45 1
  48   30   31 ar
  49   30   46 1
  50   31   32 ar
  51   31   47 1
  52   32   48 1
  53   33   49 1
  54   33   50 1
  55   33   51 1

#	End of record

