#	Name: ASD06352001
#	Creating user name:	WinNT
#	Creation time:	15. 06. 2019 21:06

#	Modifying user name:	WinNT
#	Modification time:	15. 06. 2019 21:06

#	Program:	/corina/corina34_cracker 3.40 0067  02.08.2006

@<TRIPOS>MOLECULE
ASD06352001
 126  126    0    0    0
SMALL
NO_CHARGES


@<TRIPOS>ATOM
   1 C1            -3.0361     4.4064     3.6185 C.2     
   2 O2            -2.5226     3.3175     3.4718 O.2     
   3 N3            -1.0448     5.0346     4.8615 N.3     
   4 C4            -2.2243     5.5558     4.1579 C.3     
   5 C5            -1.7742     6.4496     3.0006 C.3     
   6 C6            -0.9500     7.6165     3.5482 C.3     
   7 C7            -0.9197     5.6336     2.0285 C.3     
   8 C8            -6.2567     4.0115     1.9348 C.2     
   9 O9            -6.5149     5.1963     1.9549 O.2     
  10 N10           -4.3313     4.5899     3.2939 N.am    
  11 C11           -5.1188     3.4741     2.7639 C.3     
  12 C12           -5.6786     2.6485     3.9241 C.3     
  13 C13           -4.5254     1.9946     4.6878 C.3     
  14 C14           -6.4626     3.5620     4.8684 C.3     
  15 C15           -9.3611     2.7923     0.8416 C.2     
  16 O16           -9.2118     1.8509     1.5915 O.2     
  17 N17           -6.9875     3.1754     1.1710 N.am    
  18 C18           -8.1862     3.6671     0.4872 C.3     
  19 C19           -7.9614     3.6307    -1.0257 C.3     
  20 C20           -6.7879     4.5072    -1.3804 C.2     
  21 O21           -6.1739     5.0815    -0.5062 O.2     
  22 N22           -6.4208     4.6530    -2.6690 N.am    
  23 C23          -12.9529     2.7116    -0.0337 C.2     
  24 O24          -12.8844     3.6863    -0.7520 O.2     
  25 N25          -10.5777     3.0562     0.3252 N.am    
  26 C26          -11.7198     2.2058     0.6697 C.3     
  27 C27          -16.5506     2.2750     0.1641 C.2     
  28 O28          -16.5222     1.5618     1.1447 O.2     
  29 N29          -14.1318     2.0806     0.1355 N.am    
  30 C30          -15.2999     2.4880    -0.6492 C.3     
  31 C31          -15.3735     1.6496    -1.9270 C.3     
  32 C32          -15.2924     0.1646    -1.5679 C.3     
  33 C33          -16.6280    -0.2909    -0.9768 C.3     
  34 C34          -14.2064     2.0167    -2.8457 C.3     
  35 C35          -19.4229     1.4540     0.7758 C.2     
  36 O36          -18.8610     0.5416     0.2077 O.2     
  37 N37          -17.7007     2.8770    -0.1982 N.am    
  38 C38          -18.9514     2.8711     0.5747 C.3     
  39 C39          -19.9970     3.6615    -0.2398 C.3     
  40 C40          -19.4399     3.5868    -1.6860 C.3     
  41 C41          -17.9111     3.6560    -1.4321 C.3     
  42 C42          -22.3809    -0.1713     2.1799 C.2     
  43 O43          -22.9755     0.8801     2.2891 O.2     
  44 N44          -20.4689     1.2005     1.5869 N.am    
  45 C45          -20.9273    -0.1772     1.7824 C.3     
  46 C46          -20.0994    -0.8383     2.8863 C.3     
  47 C47          -18.6125    -0.7332     2.5410 C.3     
  48 O48          -20.3477    -0.1773     4.1286 O.3     
  49 C49          -24.5458    -1.1338     4.2905 C.2     
  50 O50          -23.5480    -1.0121     4.9609 O.2     
  51 N51          -23.0202    -1.3345     2.4140 N.am    
  52 C52          -24.4333    -1.3288     2.8004 C.3     
  53 C53          -25.0739    -2.6625     2.4108 C.3     
  54 C54          -25.0714    -2.8036     0.8873 C.3     
  55 C55          -25.7121    -4.1373     0.4977 C.3     
  56 N56          -25.7097    -4.2725    -0.9611 N.pl3   
  57 C57          -26.2380    -5.3979    -1.5480 C.2     
  58 N58          -26.7411    -6.3445    -0.8066 N.2     
  59 N59          -26.2358    -5.5247    -2.9170 N.pl3   
  60 O60          -25.7546    -1.0953     4.8729 O.3     
  61 H61           -0.4639     4.4916     4.2404 H       
  62 H62           -0.5183     5.7824     5.2876 H       
  63 H63           -2.8331     6.1371     4.8504 H       
  64 H64           -2.6494     6.8363     2.4785 H       
  65 H65           -0.0748     7.2298     4.0702 H       
  66 H66           -0.6293     8.2533     2.7237 H       
  67 H67           -1.5587     8.1979     4.2407 H       
  68 H68           -1.5069     4.8022     1.6384 H       
  69 H69           -0.5990     6.2703     1.2040 H       
  70 H70           -0.0445     5.2468     2.5506 H       
  71 H71           -4.7420     5.4608     3.4112 H       
  72 H72           -4.4829     2.8433     2.1427 H       
  73 H73           -6.3405     1.8754     3.5338 H       
  74 H74           -3.9307     2.7655     5.1778 H       
  75 H75           -4.9265     1.3134     5.4382 H       
  76 H76           -3.8972     1.4390     3.9915 H       
  77 H77           -7.2842     4.0279     4.3243 H       
  78 H78           -6.8614     2.9739     5.6950 H       
  79 H79           -5.8007     4.3351     5.2587 H       
  80 H80           -6.7198     2.2481     1.0740 H       
  81 H81           -8.3885     4.6914     0.8000 H       
  82 H82           -7.7575     2.6066    -1.3383 H       
  83 H83           -8.8539     3.9950    -1.5345 H       
  84 H84           -6.9119     4.1938    -3.3681 H       
  85 H85           -5.6655     5.2172    -2.8972 H       
  86 H86          -10.6971     3.8091    -0.2746 H       
  87 H87          -11.8800     2.2317     1.7476 H       
  88 H88          -11.5175     1.1814     0.3570 H       
  89 H89          -14.2068     1.3568     0.7769 H       
  90 H90          -15.2119     3.5424    -0.9110 H       
  91 H91          -16.3152     1.8489    -2.4385 H       
  92 H92          -15.0757    -0.4149    -2.4654 H       
  93 H93          -14.4996     0.0106    -0.8358 H       
  94 H94          -16.6217    -1.3743    -0.8568 H       
  95 H95          -16.7754     0.1813    -0.0055 H       
  96 H96          -17.4385    -0.0043    -1.6468 H       
  97 H97          -13.2691     1.7062    -2.3842 H       
  98 H98          -14.3250     1.5104    -3.8037 H       
  99 H99          -14.1938     3.0951    -3.0039 H       
 100 H100         -18.7922     3.3493     1.5411 H       
 101 H101         -20.9750     3.1842    -0.1781 H       
 102 H102         -20.0493     4.6958     0.1003 H       
 103 H103         -19.7179     2.6473    -2.1637 H       
 104 H104         -19.7748     4.4385    -2.2781 H       
 105 H105         -17.5946     4.6889    -1.2872 H       
 106 H106         -17.3683     3.2049    -2.2627 H       
 107 H107         -20.9183     1.9302     2.0413 H       
 108 H108         -20.8067    -0.7354     0.8540 H       
 109 H109         -20.3794    -1.8883     2.9710 H       
 110 H110         -18.3325     0.3168     2.4562 H       
 111 H111         -18.0227    -1.2042     3.3273 H       
 112 H112         -18.4231    -1.2374     1.5933 H       
 113 H113         -20.1211     0.7627     4.1262 H       
 114 H114         -22.5446    -2.1754     2.3267 H       
 115 H115         -24.9469    -0.5155     2.2877 H       
 116 H116         -24.5059    -3.4812     2.8525 H       
 117 H117         -26.1001    -2.6933     2.7769 H       
 118 H118         -25.6395    -1.9849     0.4456 H       
 119 H119         -24.0452    -2.7728     0.5212 H       
 120 H120         -25.1440    -4.9560     0.9393 H       
 121 H121         -26.7383    -4.1681     0.8637 H       
 122 H122         -25.3353    -3.5680    -1.5128 H       
 123 H123         -27.1138    -7.1385    -1.2207 H       
 124 H124         -25.8615    -4.8202    -3.4687 H       
 125 H125         -26.6086    -6.3187    -3.3311 H       
 126 H126         -25.7762    -0.9683     5.8313 H       
@<TRIPOS>BOND
   1    1    2 2
   2    1    4 1
   3    1   10 am
   4    3    4 1
   5    3   61 1
   6    3   62 1
   7    4    5 1
   8    4   63 1
   9    5    6 1
  10    5    7 1
  11    5   64 1
  12    6   65 1
  13    6   66 1
  14    6   67 1
  15    7   68 1
  16    7   69 1
  17    7   70 1
  18    8    9 2
  19    8   11 1
  20    8   17 am
  21   10   11 1
  22   10   71 1
  23   11   12 1
  24   11   72 1
  25   12   13 1
  26   12   14 1
  27   12   73 1
  28   13   74 1
  29   13   75 1
  30   13   76 1
  31   14   77 1
  32   14   78 1
  33   14   79 1
  34   15   16 2
  35   15   18 1
  36   15   25 am
  37   17   18 1
  38   17   80 1
  39   18   19 1
  40   18   81 1
  41   19   20 1
  42   19   82 1
  43   19   83 1
  44   20   21 2
  45   20   22 am
  46   22   84 1
  47   22   85 1
  48   23   24 2
  49   23   26 1
  50   23   29 am
  51   25   26 1
  52   25   86 1
  53   26   87 1
  54   26   88 1
  55   27   28 2
  56   27   30 1
  57   27   37 am
  58   29   30 1
  59   29   89 1
  60   30   31 1
  61   30   90 1
  62   31   32 1
  63   31   34 1
  64   31   91 1
  65   32   33 1
  66   32   92 1
  67   32   93 1
  68   33   94 1
  69   33   95 1
  70   33   96 1
  71   34   97 1
  72   34   98 1
  73   34   99 1
  74   35   36 2
  75   35   44 am
  76   35   38 1
  77   37   38 1
  78   37   41 1
  79   38   39 1
  80   38  100 1
  81   39   40 1
  82   39  101 1
  83   39  102 1
  84   40   41 1
  85   40  103 1
  86   40  104 1
  87   41  105 1
  88   41  106 1
  89   42   43 2
  90   42   45 1
  91   42   51 am
  92   44   45 1
  93   44  107 1
  94   45   46 1
  95   45  108 1
  96   46   47 1
  97   46   48 1
  98   46  109 1
  99   47  110 1
 100   47  111 1
 101   47  112 1
 102   48  113 1
 103   49   50 2
 104   49   52 1
 105   49   60 1
 106   51   52 1
 107   51  114 1
 108   52   53 1
 109   52  115 1
 110   53   54 1
 111   53  116 1
 112   53  117 1
 113   54   55 1
 114   54  118 1
 115   54  119 1
 116   55   56 1
 117   55  120 1
 118   55  121 1
 119   56   57 1
 120   56  122 1
 121   57   58 2
 122   57   59 1
 123   58  123 1
 124   59  124 1
 125   59  125 1
 126   60  126 1

#	End of record

