#	Name: ASD03091327
#	Creating user name:	WinNT
#	Creation time:	15. 06. 2019 20:30

#	Modifying user name:	WinNT
#	Modification time:	15. 06. 2019 20:30

#	Program:	/corina/corina34_cracker 3.40 0067  02.08.2006

@<TRIPOS>MOLECULE
ASD03091327
  39   40    0    0    0
SMALL
NO_CHARGES


@<TRIPOS>ATOM
   1 C1            -0.0168     1.3884     0.0097 C.ar    
   2 C2             0.0021    -0.0041     0.0020 C.ar    
   3 C3            -1.1943    -0.6912     0.0102 C.ar    
   4 N4            -2.3450    -0.0454     0.0251 N.ar    
   5 C5            -2.4038     1.2729     0.0324 C.ar    
   6 C6            -1.2517     2.0320     0.0308 C.ar    
   7 C7            -6.4978    -1.2877     3.4882 C.ar    
   8 N8            -5.7171    -2.1545     2.8713 N.ar    
   9 C9            -5.2886    -3.2521     3.4655 C.ar    
  10 C10           -5.6450    -3.5361     4.7678 C.ar    
  11 C11           -6.4675    -2.6463     5.4541 C.ar    
  12 C12           -6.8980    -1.4996     4.7915 C.ar    
  13 C13           -5.3150    -1.8910     1.4874 C.3     
  14 C14           -4.0123    -1.0887     1.4787 C.3     
  15 C15           -3.5924    -0.8136     0.0334 C.3     
  16 O16            1.1390     2.1002     0.0025 O.3     
  17 C17            1.0238     3.5245     0.0112 C.3     
  18 O18           -6.8404    -2.8906     6.7362 O.3     
  19 C19           -7.6856    -1.9229     7.3617 C.3     
  20 H20            0.9404    -0.5387    -0.0105 H       
  21 H21           -1.1890    -1.7712     0.0040 H       
  22 H22           -3.3658     1.7637     0.0439 H       
  23 H23           -1.3067     3.1106     0.0367 H       
  24 H24           -6.8236    -0.3991     2.9680 H       
  25 H25           -4.6514    -3.9368     2.9255 H       
  26 H26           -5.2912    -4.4364     5.2482 H       
  27 H27           -7.5365    -0.7859     5.2909 H       
  28 H28           -5.1629    -2.8366     0.9669 H       
  29 H29           -6.0961    -1.3210     0.9843 H       
  30 H30           -4.1644    -0.1432     1.9992 H       
  31 H31           -3.2312    -1.6588     1.9818 H       
  32 H32           -4.3735    -0.2435    -0.4696 H       
  33 H33           -3.4402    -1.7591    -0.4870 H       
  34 H34            0.4739     3.8500    -0.8718 H       
  35 H35            0.4909     3.8405     0.9080 H       
  36 H36            2.0188     3.9696     0.0041 H       
  37 H37           -7.1793    -0.9578     7.3828 H       
  38 H38           -8.6145    -1.8337     6.7985 H       
  39 H39           -7.9076    -2.2391     8.3809 H       
@<TRIPOS>BOND
   1    1    2 ar
   2    1   16 1
   3    1    6 ar
   4    2    3 ar
   5    2   20 1
   6    3    4 ar
   7    3   21 1
   8    4    5 ar
   9    4   15 1
  10    5    6 ar
  11    5   22 1
  12    6   23 1
  13    7    8 ar
  14    7   12 ar
  15    7   24 1
  16    8    9 ar
  17    8   13 1
  18    9   10 ar
  19    9   25 1
  20   10   11 ar
  21   10   26 1
  22   11   12 ar
  23   11   18 1
  24   12   27 1
  25   13   14 1
  26   13   28 1
  27   13   29 1
  28   14   15 1
  29   14   30 1
  30   14   31 1
  31   15   32 1
  32   15   33 1
  33   16   17 1
  34   17   34 1
  35   17   35 1
  36   17   36 1
  37   18   19 1
  38   19   37 1
  39   19   38 1
  40   19   39 1

#	End of record

