#	Name: ASD03240322
#	Creating user name:	WinNT
#	Creation time:	15. 06. 2019 20:34

#	Modifying user name:	WinNT
#	Modification time:	15. 06. 2019 20:34

#	Program:	/corina/corina34_cracker 3.40 0067  02.08.2006

@<TRIPOS>MOLECULE
ASD03240322
  81   85    0    0    0
SMALL
NO_CHARGES


@<TRIPOS>ATOM
   1 C1             0.4011     2.6209     1.9831 C.2     
   2 N2             0.6361     1.8748     3.1137 N.pl3   
   3 O3            -3.2564     4.1508     1.4830 O.2     
   4 C4            -2.5201     4.4437     0.5649 C.2     
   5 C5            -1.0918     3.9632     0.5618 C.3     
   6 N6            -0.8414     3.1682     1.7665 N.pl3   
   7 N7             1.3578     2.8140     1.1192 N.2     
   8 N8            -2.9793     5.1988    -0.4526 N.am    
   9 C9            -4.3257     5.5490    -0.5073 C.ar    
  10 C10           -4.7056     6.7952    -1.0272 C.ar    
  11 C11           -6.0502     7.1404    -1.0803 C.ar    
  12 C12           -7.0146     6.2453    -0.6161 C.ar    
  13 C13           -6.6261     5.0053    -0.0995 C.ar    
  14 C14           -5.2932     4.6615    -0.0521 C.ar    
  15 C15           -8.4445     6.6073    -0.6698 C.2     
  16 N16           -9.3759     5.7426    -0.2214 N.am    
  17 O17           -8.7821     7.6859    -1.1187 O.2     
  18 C18          -10.7200     6.1317    -0.1578 C.ar    
  19 C19          -11.7240     5.1750    -0.2310 C.ar    
  20 C20          -11.0484     7.4735    -0.0160 C.ar    
  21 C21          -12.3732     7.8571     0.0466 C.ar    
  22 C22          -13.3775     6.9010    -0.0322 C.ar    
  23 C23          -13.0488     5.5584    -0.1684 C.ar    
  24 N24          -14.7199     7.2896     0.0316 N.pl3   
  25 C25          -15.7791     6.2810    -0.0515 C.3     
  26 C26          -15.0664     8.7051     0.1816 C.3     
  27 C27           -3.6757     7.7409    -1.5179 C.ar    
  28 C28           -3.8092     8.3246    -2.7784 C.ar    
  29 C29           -2.8533     9.2030    -3.2353 C.ar    
  30 C30           -1.7485     9.5105    -2.4361 C.ar    
  31 C31           -1.6160     8.9252    -1.1737 C.ar    
  32 C32           -2.5761     8.0514    -0.7167 C.ar    
  33 C33          -15.2109     9.3339    -1.1802 C.ar    
  34 C34          -16.1167     5.7916     1.3333 C.ar    
  35 C35          -16.4428     9.3367    -1.8102 C.ar    
  36 C36          -16.5823     9.9110    -3.0567 C.ar    
  37 C37          -15.4767    10.4904    -3.6825 C.ar    
  38 C38          -14.2365    10.4840    -3.0410 C.ar    
  39 C39          -14.1123     9.9109    -1.7924 C.ar    
  40 C40          -17.0996     6.4299     2.0687 C.ar    
  41 C41          -17.4139     5.9870     3.3367 C.ar    
  42 C42          -16.7375     4.8918     3.8778 C.ar    
  43 C43          -15.7467     4.2524     3.1301 C.ar    
  44 C44          -15.4461     4.7026     1.8613 C.ar    
  45 C45          -17.0582     4.4268     5.1937 C.1     
  46 N46          -17.3127     4.0580     6.2375 N.1     
  47 C47           -0.7530    10.4241    -2.9105 C.1     
  48 N48            0.0368    11.1488    -3.2868 N.1     
  49 C49          -15.6140    11.0880    -4.9766 C.1     
  50 N50          -15.7229    11.5620    -6.0032 N.1     
  51 H51            1.5139     1.4921     3.2684 H       
  52 H52           -0.0759     1.7312     3.7566 H       
  53 H53           -0.9169     3.3492    -0.3216 H       
  54 H54           -0.4198     4.8213     0.5466 H       
  55 H55           -1.5522     3.0279     2.4115 H       
  56 H56            1.1920     3.3404     0.3215 H       
  57 H57           -2.3717     5.4984    -1.1469 H       
  58 H58           -6.3481     8.0987    -1.4793 H       
  59 H59           -7.3736     4.3134     0.2594 H       
  60 H60           -4.9985     3.7026     0.3479 H       
  61 H61           -9.1154     4.8507     0.0574 H       
  62 H62          -11.4684     4.1311    -0.3371 H       
  63 H63          -10.2675     8.2170     0.0456 H       
  64 H64          -12.6286     8.9007     0.1572 H       
  65 H65          -13.8296     4.8148    -0.2300 H       
  66 H66          -16.6657     6.7219    -0.5072 H       
  67 H67          -15.4366     5.4435    -0.6593 H       
  68 H68          -16.0076     8.7932     0.7243 H       
  69 H69          -14.2784     9.2153     0.7357 H       
  70 H70           -4.6627     8.0865    -3.3958 H       
  71 H71           -2.9566     9.6544    -4.2110 H       
  72 H72           -0.7628     9.1620    -0.5553 H       
  73 H73           -2.4741     7.5993     0.2588 H       
  74 H74          -17.2970     8.8879    -1.3251 H       
  75 H75          -17.5443     9.9122    -3.5475 H       
  76 H76          -13.3772    10.9301    -3.5196 H       
  77 H77          -13.1537     9.9053    -1.2950 H       
  78 H78          -17.6217     7.2771     1.6491 H       
  79 H79          -18.1811     6.4864     3.9098 H       
  80 H80          -15.2194     3.4050     3.5428 H       
  81 H81          -14.6800     4.2089     1.2818 H       
@<TRIPOS>BOND
   1    1    2 1
   2    1    7 2
   3    1    6 1
   4    2   51 1
   5    2   52 1
   6    3    4 2
   7    4    5 1
   8    4    8 am
   9    5    6 1
  10    5   53 1
  11    5   54 1
  12    6   55 1
  13    7   56 1
  14    8    9 1
  15    8   57 1
  16    9   10 ar
  17    9   14 ar
  18   10   11 ar
  19   10   27 1
  20   11   12 ar
  21   11   58 1
  22   12   13 ar
  23   12   15 1
  24   13   14 ar
  25   13   59 1
  26   14   60 1
  27   15   16 am
  28   15   17 2
  29   16   18 1
  30   16   61 1
  31   18   19 ar
  32   18   20 ar
  33   19   23 ar
  34   19   62 1
  35   20   21 ar
  36   20   63 1
  37   21   22 ar
  38   21   64 1
  39   22   23 ar
  40   22   24 1
  41   23   65 1
  42   24   25 1
  43   24   26 1
  44   25   34 1
  45   25   66 1
  46   25   67 1
  47   26   33 1
  48   26   68 1
  49   26   69 1
  50   27   28 ar
  51   27   32 ar
  52   28   29 ar
  53   28   70 1
  54   29   30 ar
  55   29   71 1
  56   30   31 ar
  57   30   47 1
  58   31   32 ar
  59   31   72 1
  60   32   73 1
  61   33   35 ar
  62   33   39 ar
  63   34   40 ar
  64   34   44 ar
  65   35   36 ar
  66   35   74 1
  67   36   37 ar
  68   36   75 1
  69   37   38 ar
  70   37   49 1
  71   38   39 ar
  72   38   76 1
  73   39   77 1
  74   40   41 ar
  75   40   78 1
  76   41   42 ar
  77   41   79 1
  78   42   43 ar
  79   42   45 1
  80   43   44 ar
  81   43   80 1
  82   44   81 1
  83   45   46 3
  84   47   48 3
  85   49   50 3

#	End of record

