#	Name: ASD01810166
#	Creating user name:	WinNT
#	Creation time:	15. 06. 2019 19:23

#	Modifying user name:	WinNT
#	Modification time:	15. 06. 2019 19:23

#	Program:	/corina/corina34_cracker 3.40 0067  02.08.2006

@<TRIPOS>MOLECULE
ASD01810166
  38   40    0    0    0
SMALL
NO_CHARGES


@<TRIPOS>ATOM
   1 C1             0.1029     1.4769     0.3853 C.ar    
   2 C2             0.0842     0.0897     0.3773 C.ar    
   3 C3             1.2530    -0.6297     0.2370 C.ar    
   4 C4             2.4693     0.0388     0.1014 C.ar    
   5 C5             2.4835     1.4435     0.1100 C.ar    
   6 C6             1.2934     2.1569     0.2528 C.ar    
   7 N7             3.6450    -0.6678    -0.0386 N.pl3   
   8 C8             4.8373    -0.0733    -0.1706 C.2     
   9 C9             4.9779     1.3000    -0.1762 C.2     
  10 C10            3.7765     2.1382    -0.0343 C.2     
  11 O11            3.8474     3.3547    -0.0334 O.2     
  12 C12            6.3049     1.9147    -0.3224 C.2     
  13 O13            6.4292     3.2570    -0.3264 O.3     
  14 O14            7.2904     1.2126    -0.4397 O.2     
  15 C15            3.5871    -2.1316    -0.0427 C.3     
  16 C16            3.4445    -2.6248    -1.4595 C.ar    
  17 C17            4.5646    -2.7666    -2.2574 C.ar    
  18 C18            4.4370    -3.2185    -3.5582 C.ar    
  19 C19            3.1897    -3.5293    -4.0634 C.ar    
  20 C20            2.0640    -3.3883    -3.2644 C.ar    
  21 C21            2.1952    -2.9402    -1.9582 C.ar    
  22 F22            1.2192    -1.9802     0.2314 F       
  23 O23            0.8356    -3.6930    -3.7593 O.3     
  24 C24            0.7766    -4.1533    -5.1109 C.3     
  25 H25           -0.8208     2.0263     0.4915 H       
  26 H26           -0.8553    -0.4326     0.4823 H       
  27 H27            1.3053     3.2368     0.2590 H       
  28 H28            5.7186    -0.6887    -0.2758 H       
  29 H29            7.3221     3.6149    -0.4251 H       
  30 H30            4.5030    -2.5327     0.3912 H       
  31 H31            2.7311    -2.4630     0.5452 H       
  32 H32            5.5407    -2.5237    -1.8644 H       
  33 H33            5.3135    -3.3281    -4.1796 H       
  34 H34            3.0905    -3.8815    -5.0795 H       
  35 H35            1.3206    -2.8296    -1.3344 H       
  36 H36            1.1773    -3.3863    -5.7737 H       
  37 H37            1.3667    -5.0642    -5.2106 H       
  38 H38           -0.2594    -4.3603    -5.3793 H       
@<TRIPOS>BOND
   1    1    2 ar
   2    1    6 ar
   3    1   25 1
   4    2    3 ar
   5    2   26 1
   6    3    4 ar
   7    3   22 1
   8    4    5 ar
   9    4    7 1
  10    5    6 ar
  11    5   10 1
  12    6   27 1
  13    7    8 1
  14    7   15 1
  15    8    9 2
  16    8   28 1
  17    9   10 1
  18    9   12 1
  19   10   11 2
  20   12   13 1
  21   12   14 2
  22   13   29 1
  23   15   16 1
  24   15   30 1
  25   15   31 1
  26   16   17 ar
  27   16   21 ar
  28   17   18 ar
  29   17   32 1
  30   18   19 ar
  31   18   33 1
  32   19   20 ar
  33   19   34 1
  34   20   21 ar
  35   20   23 1
  36   21   35 1
  37   23   24 1
  38   24   36 1
  39   24   37 1
  40   24   38 1

#	End of record

