#	Name: ASD01912913
#	Creating user name:	WinNT
#	Creation time:	15. 06. 2019 20:00

#	Modifying user name:	WinNT
#	Modification time:	15. 06. 2019 20:00

#	Program:	/corina/corina34_cracker 3.40 0067  02.08.2006

@<TRIPOS>MOLECULE
ASD01912913
  44   48    0    0    0
SMALL
NO_CHARGES


@<TRIPOS>ATOM
   1 C1            -0.0263     1.3421     0.2537 C.2     
   2 N2             0.0029    -0.0020    -0.0158 N.pl3   
   3 C3            -1.1912    -0.6642    -0.2585 C.2     
   4 C4            -2.3524    -0.0229    -0.2341 C.2     
   5 N5            -2.4358     1.3306     0.0320 N.am    
   6 C6            -1.3128     2.0398     0.2836 C.2     
   7 C7             1.2832     1.7375     0.4528 C.2     
   8 C8             2.0430     0.5806     0.2875 C.2     
   9 N9             1.2236    -0.4066     0.0131 N.2     
  10 O10           -1.3691     3.2332     0.5198 O.2     
  11 C11           -3.6825     1.9656     0.0464 C.ar    
  12 C12            3.5423     0.4814     0.4032 C.3     
  13 O13            4.0824     1.7678     0.7123 O.3     
  14 C14            5.4315     1.8532     0.8517 C.ar    
  15 C15            6.0233     3.0716     1.1518 C.ar    
  16 C16            7.3949     3.1558     1.2930 C.ar    
  17 C17            8.1778     2.0271     1.1355 C.ar    
  18 C18            7.5905     0.8117     0.8359 C.ar    
  19 C19            6.2188     0.7210     0.6998 C.ar    
  20 C20           -4.6040     1.6654     1.0318 C.ar    
  21 C21           -5.8427     2.3306     1.0026 C.ar    
  22 C22           -6.0946     3.2730    -0.0258 C.ar    
  23 N23           -5.1620     3.5194    -0.9511 N.ar    
  24 C24           -4.0013     2.9127    -0.9338 C.ar    
  25 C25           -6.8296     2.0777     1.9700 C.ar    
  26 C26           -8.0170     2.7407     1.9091 C.ar    
  27 C27           -8.2670     3.6675     0.8988 C.ar    
  28 C28           -7.3335     3.9374    -0.0538 C.ar    
  29 H29           -1.1755    -1.7228    -0.4718 H       
  30 H30           -3.2599    -0.5753    -0.4284 H       
  31 H31            1.6408     2.7295     0.6861 H       
  32 H32            3.7998    -0.2209     1.1960 H       
  33 H33            3.9571     0.1307    -0.5418 H       
  34 H34            5.4122     3.9535     1.2746 H       
  35 H35            7.8561     4.1041     1.5262 H       
  36 H36            9.2500     2.0950     1.2462 H       
  37 H37            8.2043    -0.0683     0.7127 H       
  38 H38            5.7605    -0.2285     0.4659 H       
  39 H39           -4.3796     0.9414     1.8011 H       
  40 H40           -3.2761     3.1414    -1.7008 H       
  41 H41           -6.6474     1.3612     2.7573 H       
  42 H42           -8.7751     2.5458     2.6532 H       
  43 H43           -9.2171     4.1804     0.8718 H       
  44 H44           -7.5441     4.6586    -0.8297 H       
@<TRIPOS>BOND
   1    1    2 1
   2    1    7 2
   3    1    6 1
   4    2    3 1
   5    2    9 1
   6    3    4 2
   7    3   29 1
   8    4    5 1
   9    4   30 1
  10    5    6 am
  11    5   11 1
  12    6   10 2
  13    7    8 1
  14    7   31 1
  15    8    9 2
  16    8   12 1
  17   11   20 ar
  18   11   24 ar
  19   12   13 1
  20   12   32 1
  21   12   33 1
  22   13   14 1
  23   14   15 ar
  24   14   19 ar
  25   15   16 ar
  26   15   34 1
  27   16   17 ar
  28   16   35 1
  29   17   18 ar
  30   17   36 1
  31   18   19 ar
  32   18   37 1
  33   19   38 1
  34   20   21 ar
  35   20   39 1
  36   21   22 ar
  37   21   25 ar
  38   22   23 ar
  39   22   28 ar
  40   23   24 ar
  41   24   40 1
  42   25   26 ar
  43   25   41 1
  44   26   27 ar
  45   26   42 1
  46   27   28 ar
  47   27   43 1
  48   28   44 1

#	End of record

