#	Name: ASD03090615
#	Creating user name:	WinNT
#	Creation time:	15. 06. 2019 20:29

#	Modifying user name:	WinNT
#	Modification time:	15. 06. 2019 20:29

#	Program:	/corina/corina34_cracker 3.40 0067  02.08.2006

@<TRIPOS>MOLECULE
ASD03090615
  37   38    0    0    0
SMALL
NO_CHARGES


@<TRIPOS>ATOM
   1 N1            -0.0162     1.3436     0.0094 N.am    
   2 C2             0.0194     0.1477     0.6300 C.2     
   3 O3             1.0729    -0.2852     1.0557 O.2     
   4 N4            -1.1127    -0.5684     0.7786 N.am    
   5 S5            -2.4209    -2.8292     1.6860 S.3     
   6 C6            -1.0759    -1.8023     1.4189 C.2     
   7 N7            -0.0160    -2.3677     1.9130 N.2     
   8 N8            -0.1559    -3.4950     2.4639 N.2     
   9 C9            -1.3543    -3.9854     2.4842 C.2     
  10 C10           -1.7640    -5.3065     3.0823 C.3     
  11 C11            1.1453     2.1274    -0.0708 C.ar    
  12 C12            1.0452     3.5110    -0.1994 C.ar    
  13 C13            2.1930     4.2816    -0.2778 C.ar    
  14 C14            3.4395     3.6750    -0.2283 C.ar    
  15 C15            3.5373     2.2976    -0.1003 C.ar    
  16 C16            2.3933     1.5261    -0.0164 C.ar    
  17 C17            4.8928     1.6413    -0.0467 C.3     
  18 F18            4.7361     0.2572     0.0834 F       
  19 F19            5.5940     1.9226    -1.2242 F       
  20 F20            5.6069     2.1349     1.0504 F       
  21 O21            4.5667     4.4316    -0.3057 O.3     
  22 C22            4.3923     5.8438    -0.4370 C.3     
  23 O23           -0.1776     4.1037    -0.2482 O.3     
  24 C24           -0.2042     5.5263    -0.3808 C.3     
  25 H25           -0.8436     1.6607    -0.3852 H       
  26 H26           -1.9531    -0.2230     0.4390 H       
  27 H27           -1.6891    -6.0870     2.3251 H       
  28 H28           -1.1066    -5.5466     3.9179 H       
  29 H29           -2.7928    -5.2415     3.4365 H       
  30 H30            2.1178     5.3544    -0.3779 H       
  31 H31            2.4718     0.4540     0.0877 H       
  32 H32            3.8328     6.0577    -1.3477 H       
  33 H33            3.8431     6.2237     0.4245 H       
  34 H34            5.3679     6.3272    -0.4880 H       
  35 H35            0.3075     5.9799     0.4680 H       
  36 H36            0.2981     5.8146    -1.3042 H       
  37 H37           -1.2384     5.8694    -0.4074 H       
@<TRIPOS>BOND
   1    1    2 am
   2    1   11 1
   3    1   25 1
   4    2    3 2
   5    2    4 am
   6    4    6 1
   7    4   26 1
   8    5    6 1
   9    5    9 1
  10    6    7 2
  11    7    8 1
  12    8    9 2
  13    9   10 1
  14   10   27 1
  15   10   28 1
  16   10   29 1
  17   11   12 ar
  18   11   16 ar
  19   12   13 ar
  20   12   23 1
  21   13   14 ar
  22   13   30 1
  23   14   15 ar
  24   14   21 1
  25   15   16 ar
  26   15   17 1
  27   16   31 1
  28   17   18 1
  29   17   19 1
  30   17   20 1
  31   21   22 1
  32   22   32 1
  33   22   33 1
  34   22   34 1
  35   23   24 1
  36   24   35 1
  37   24   36 1
  38   24   37 1

#	End of record

