#	Name: ASD01883482
#	Creating user name:	WinNT
#	Creation time:	15. 06. 2019 19:46

#	Modifying user name:	WinNT
#	Modification time:	15. 06. 2019 19:46

#	Program:	/corina/corina34_cracker 3.40 0067  02.08.2006

@<TRIPOS>MOLECULE
ASD01883482
  63   67    0    0    0
SMALL
NO_CHARGES


@<TRIPOS>ATOM
   1 F1            -0.8434     9.3655     0.4973 F       
   2 N2            -0.5889     3.3784     2.3288 N.am    
   3 C3            -0.4518     2.6689     1.1933 C.2     
   4 C4            -1.4404     1.7251     0.8273 C.2     
   5 C5            -2.5521     1.5516     1.6689 C.2     
   6 C6            -2.6389     2.3230     2.8426 C.2     
   7 C7            -1.6618     3.2058     3.1441 C.2     
   8 O8             0.5230     2.8395     0.4807 O.2     
   9 C9            -1.3107     0.9620    -0.3775 C.1     
  10 N10           -1.2078     0.3567    -1.3332 N.1     
  11 N11           -3.5378     0.6445     1.3511 N.pl3   
  12 C12           -4.9166     1.0912     1.1100 C.3     
  13 C13           -5.8592     0.2923     2.0156 C.3     
  14 C14           -5.6340    -1.2039     1.7863 C.3     
  15 C15           -4.1924    -1.5663     2.1502 C.3     
  16 C16           -3.2297    -0.7878     1.2405 C.3     
  17 C17            0.4424     4.3519     2.6960 C.3     
  18 C18            0.0976     5.6954     2.1067 C.ar    
  19 C19           -0.6742     6.5879     2.8269 C.ar    
  20 C20           -0.9907     7.8204     2.2877 C.ar    
  21 C21           -0.5343     8.1611     1.0256 C.ar    
  22 C22            0.2387     7.2663     0.3052 C.ar    
  23 C23            0.5583     6.0365     0.8487 C.ar    
  24 N24           -6.5595    -1.9729     2.6291 N.3     
  25 C25           -7.9559    -1.6420     2.3152 C.3     
  26 C26           -8.8449    -2.0910     3.4462 C.ar    
  27 C27           -8.6983    -1.5348     4.7026 C.ar    
  28 C28           -9.5153    -1.9477     5.7416 C.ar    
  29 C29          -10.4783    -2.9173     5.5202 C.ar    
  30 C30          -10.6232    -3.4722     4.2626 C.ar    
  31 C31           -9.8108    -3.0553     3.2249 C.ar    
  32 C32           -6.3177    -3.4157     2.4958 C.3     
  33 F33           -9.3725    -1.4049     6.9705 F       
  34 C34           -7.1065    -4.3520     3.4134 C.3     
  35 C35           -7.4496    -4.2720     1.9245 C.3     
  36 H36           -3.4846     2.2066     3.5041 H       
  37 H37           -1.7392     3.7924     4.0476 H       
  38 H38           -5.0021     2.1532     1.3397 H       
  39 H39           -5.1794     0.9186     0.0663 H       
  40 H40           -5.6546     0.5354     3.0583 H       
  41 H41           -6.8926     0.5453     1.7786 H       
  42 H42           -5.8148    -1.4419     0.7381 H       
  43 H43           -4.0035    -1.3057     3.1916 H       
  44 H44           -4.0394    -2.6362     2.0089 H       
  45 H45           -3.3564    -1.1157     0.2088 H       
  46 H46           -2.2024    -0.9650     1.5589 H       
  47 H47            0.4946     4.4340     3.7817 H       
  48 H48            1.4070     4.0225     2.3098 H       
  49 H49           -1.0304     6.3218     3.8111 H       
  50 H50           -1.5940     8.5174     2.8503 H       
  51 H51            0.5952     7.5310    -0.6793 H       
  52 H52            1.1612     5.3384     0.2870 H       
  53 H53           -8.0529    -0.5644     2.1826 H       
  54 H54           -8.2520    -2.1492     1.3970 H       
  55 H55           -7.9464    -0.7787     4.8742 H       
  56 H56          -11.1159    -3.2403     6.3299 H       
  57 H57          -11.3743    -4.2287     4.0897 H       
  58 H58           -9.9250    -3.4892     2.2425 H       
  59 H59           -5.2956    -3.6999     2.2453 H       
  60 H60           -6.6036    -5.2524     3.7662 H       
  61 H61           -7.8050    -3.8974     4.1160 H       
  62 H62           -8.3738    -3.7647     1.6476 H       
  63 H63           -7.1725    -5.1197     1.2979 H       
@<TRIPOS>BOND
   1    1   21 1
   2    2    3 am
   3    2   17 1
   4    2    7 1
   5    3    4 1
   6    3    8 2
   7    4    5 2
   8    4    9 1
   9    5    6 1
  10    5   11 1
  11    6    7 2
  12    6   36 1
  13    7   37 1
  14    9   10 3
  15   11   12 1
  16   11   16 1
  17   12   13 1
  18   12   38 1
  19   12   39 1
  20   13   14 1
  21   13   40 1
  22   13   41 1
  23   14   15 1
  24   14   24 1
  25   14   42 1
  26   15   16 1
  27   15   43 1
  28   15   44 1
  29   16   45 1
  30   16   46 1
  31   17   18 1
  32   17   47 1
  33   17   48 1
  34   18   19 ar
  35   18   23 ar
  36   19   20 ar
  37   19   49 1
  38   20   21 ar
  39   20   50 1
  40   21   22 ar
  41   22   23 ar
  42   22   51 1
  43   23   52 1
  44   24   25 1
  45   24   32 1
  46   25   26 1
  47   25   53 1
  48   25   54 1
  49   26   27 ar
  50   26   31 ar
  51   27   28 ar
  52   27   55 1
  53   28   29 ar
  54   28   33 1
  55   29   30 ar
  56   29   56 1
  57   30   31 ar
  58   30   57 1
  59   31   58 1
  60   32   34 1
  61   32   35 1
  62   32   59 1
  63   34   35 1
  64   34   60 1
  65   34   61 1
  66   35   62 1
  67   35   63 1

#	End of record

