#	Name: ASD03730281
#	Creating user name:	WinNT
#	Creation time:	15. 06. 2019 20:44

#	Modifying user name:	WinNT
#	Modification time:	15. 06. 2019 20:44

#	Program:	/corina/corina34_cracker 3.40 0067  02.08.2006

@<TRIPOS>MOLECULE
ASD03730281
  58   63    0    0    0
SMALL
NO_CHARGES


@<TRIPOS>ATOM
   1 N1             1.4205     2.0560    -1.8516 N.3     
   2 C2             1.4073     0.5823    -2.0067 C.3     
   3 O3             2.7991     0.2514    -2.1621 O.3     
   4 C4             3.5060     1.2218    -1.5121 C.ar    
   5 C5             2.6921     2.3364    -1.3143 C.ar    
   6 C6             4.8144     1.2395    -1.0599 C.ar    
   7 C7             5.3248     2.3613    -0.4141 C.ar    
   8 C8             4.5061     3.4726    -0.2369 C.ar    
   9 C9             3.1994     3.4582    -0.6793 C.ar    
  10 O10            6.5629     2.5695     0.1198 O.3     
  11 C11            5.3438     4.5171     0.4505 C.3     
  12 C12            6.7743     3.9842     0.2887 C.3     
  13 N13            4.7687     6.6989     0.8133 N.am    
  14 C14            5.1816     5.8751    -0.1704 C.2     
  15 C15            4.9732     4.6930     1.8928 C.ar    
  16 C16            4.9210     3.8340     2.9820 C.ar    
  17 C17            4.5235     4.3177     4.2280 C.ar    
  18 C18            4.1844     5.6487     4.3693 C.ar    
  19 C19            4.2386     6.5027     3.2866 C.ar    
  20 C20            4.6359     6.0344     2.0354 C.ar    
  21 O21            5.3832     6.1721    -1.3289 O.2     
  22 C22            0.3554     2.4993    -0.9423 C.3     
  23 C23            0.6900     2.0638     0.4858 C.3     
  24 C24           -0.4194     2.5255     1.4329 C.3     
  25 C25           -0.0848     2.0900     2.8610 C.3     
  26 C26           -1.1942     2.5516     3.8081 C.3     
  27 C27            5.2868     2.4052     2.8207 C.ar    
  28 C28            6.6289     2.0302     2.7439 C.ar    
  29 C29            6.9639     0.6975     2.5942 C.ar    
  30 C30            5.9722    -0.2633     2.5201 C.ar    
  31 C31            4.6386     0.1033     2.5954 C.ar    
  32 C32            4.2922     1.4326     2.7513 C.ar    
  33 F33            3.6746    -0.8404     2.5214 F       
  34 F34            7.5988     2.9679     2.8152 F       
  35 H35            0.9961     0.1060    -1.1167 H       
  36 H36            0.8426     0.2944    -2.8935 H       
  37 H37            5.4443     0.3750    -1.2093 H       
  38 H38            2.5708     4.3237    -0.5306 H       
  39 H39            7.3650     4.1834     1.1828 H       
  40 H40            7.2495     4.4126    -0.5938 H       
  41 H41            4.5852     7.6431     0.6876 H       
  42 H42            4.4813     3.6541     5.0790 H       
  43 H43            3.8744     6.0239     5.3334 H       
  44 H44            3.9709     7.5417     3.4097 H       
  45 H45            0.2732     3.5855    -0.9810 H       
  46 H46           -0.5911     2.0522    -1.2461 H       
  47 H47            0.7721     0.9776     0.5246 H       
  48 H48            1.6365     2.5109     0.7896 H       
  49 H49           -0.5016     3.6117     1.3941 H       
  50 H50           -1.3660     2.0784     1.1291 H       
  51 H51           -0.0027     1.0038     2.8997 H       
  52 H52            0.8617     2.5370     3.1648 H       
  53 H53           -0.9559     2.2414     4.8254 H       
  54 H54           -1.2764     3.6378     3.7693 H       
  55 H55           -2.1408     2.1046     3.5042 H       
  56 H56            8.0022     0.4061     2.5346 H       
  57 H57            6.2384    -1.3034     2.4028 H       
  58 H58            3.2522     1.7169     2.8144 H       
@<TRIPOS>BOND
   1    1    2 1
   2    1    5 1
   3    1   22 1
   4    2    3 1
   5    2   35 1
   6    2   36 1
   7    3    4 1
   8    4    5 ar
   9    4    6 ar
  10    5    9 ar
  11    6    7 ar
  12    6   37 1
  13    7    8 ar
  14    7   10 1
  15    8    9 ar
  16    8   11 1
  17    9   38 1
  18   10   12 1
  19   11   12 1
  20   11   14 1
  21   11   15 1
  22   12   39 1
  23   12   40 1
  24   13   14 am
  25   13   20 1
  26   13   41 1
  27   14   21 2
  28   15   16 ar
  29   15   20 ar
  30   16   17 ar
  31   16   27 1
  32   17   18 ar
  33   17   42 1
  34   18   19 ar
  35   18   43 1
  36   19   20 ar
  37   19   44 1
  38   22   23 1
  39   22   45 1
  40   22   46 1
  41   23   24 1
  42   23   47 1
  43   23   48 1
  44   24   25 1
  45   24   49 1
  46   24   50 1
  47   25   26 1
  48   25   51 1
  49   25   52 1
  50   26   53 1
  51   26   54 1
  52   26   55 1
  53   27   28 ar
  54   27   32 ar
  55   28   29 ar
  56   28   34 1
  57   29   30 ar
  58   29   56 1
  59   30   31 ar
  60   30   57 1
  61   31   32 ar
  62   31   33 1
  63   32   58 1

#	End of record

