#	Name: ASD04591004
#	Creating user name:	WinNT
#	Creation time:	15. 06. 2019 20:51

#	Modifying user name:	WinNT
#	Modification time:	15. 06. 2019 20:51

#	Program:	/corina/corina34_cracker 3.40 0067  02.08.2006

@<TRIPOS>MOLECULE
ASD04591004
  65   70    0    0    0
SMALL
NO_CHARGES


@<TRIPOS>ATOM
   1 N1            -0.0170     1.3232    -0.0111 N.ar    
   2 C2             0.0017    -0.0035    -0.0048 C.ar    
   3 N3             1.1299    -0.6949    -0.0118 N.ar    
   4 C4             2.3050    -0.0729    -0.0258 C.ar    
   5 C5             2.3189     1.3365    -0.0332 C.ar    
   6 C6             1.1072     2.0202    -0.0251 C.ar    
   7 N7             3.6031    -0.5196    -0.0356 N.pl3   
   8 C8             4.4823     0.5494    -0.0493 C.ar    
   9 C9             3.7313     1.7384    -0.0484 C.ar    
  10 C10            5.8681     0.6417    -0.0622 C.ar    
  11 N11            6.4613     1.8180    -0.0729 N.ar    
  12 C12            5.7851     2.9532    -0.0725 C.ar    
  13 C13            4.4064     2.9584    -0.0613 C.ar    
  14 C14            4.0018    -1.9293    -0.0316 C.3     
  15 C15            3.4609    -2.6264     1.2291 C.3     
  16 C16            2.5278    -3.7546     0.7428 C.3     
  17 C17            3.0202    -4.0623    -0.6931 C.3     
  18 C18            3.3785    -2.6581    -1.2399 C.3     
  19 N19           -1.2019    -0.6887     0.0098 N.pl3   
  20 C20           -2.4022     0.0122     0.1304 C.ar    
  21 N21           -2.3891     1.3195     0.3310 N.ar    
  22 N22           -3.4683     2.0042     0.4478 N.ar    
  23 C23           -4.6668     1.4483     0.3753 C.ar    
  24 C24           -4.7831     0.0733     0.1655 C.ar    
  25 C25           -3.6194    -0.6637     0.0338 C.ar    
  26 N26           -5.8099     2.2334     0.5087 N.3     
  27 C27           -5.4581     3.6431     0.7218 C.3     
  28 C28           -6.7271     4.4492     1.0083 C.3     
  29 C29           -7.6881     4.3170    -0.1764 C.3     
  30 C30           -8.0003     2.8359    -0.4075 C.3     
  31 C31           -6.6945     2.0766    -0.6529 C.3     
  32 N32           -8.9322     5.0409     0.1176 N.3     
  33 C33           -9.8314     5.0355    -1.0440 C.3     
  34 C34           -9.5986     4.4829     1.3018 C.3     
  35 H35            1.0849     3.0999    -0.0300 H       
  36 H36            6.4645    -0.2586    -0.0631 H       
  37 H37            6.3204     3.8911    -0.0816 H       
  38 H38            3.8597     3.8898    -0.0610 H       
  39 H39            5.0882    -2.0099    -0.0658 H       
  40 H40            4.2848    -3.0461     1.8062 H       
  41 H41            2.9018    -1.9159     1.8379 H       
  42 H42            2.6300    -4.6345     1.3779 H       
  43 H43            1.4928    -3.4130     0.7262 H       
  44 H44            3.9009    -4.7042    -0.6702 H       
  45 H45            2.2255    -4.5162    -1.2851 H       
  46 H46            2.4809    -2.1395    -1.5768 H       
  47 H47            4.1014    -2.7379    -2.0518 H       
  48 H48           -1.2103    -1.6559    -0.0637 H       
  49 H49           -5.7518    -0.4003     0.1036 H       
  50 H50           -3.6520    -1.7307    -0.1299 H       
  51 H51           -4.7777     3.7235     1.5696 H       
  52 H52           -4.9727     4.0354    -0.1718 H       
  53 H53           -7.2057     4.0663     1.9096 H       
  54 H54           -6.4674     5.4981     1.1510 H       
  55 H55           -7.2247     4.7353    -1.0699 H       
  56 H56           -8.4990     2.4276     0.4716 H       
  57 H57           -8.6503     2.7322    -1.2763 H       
  58 H58           -6.2032     2.4762    -1.5401 H       
  59 H59           -6.9120     1.0192    -0.8036 H       
  60 H60          -10.0792     4.0071    -1.3069 H       
  61 H61          -10.7445     5.5780    -0.7991 H       
  62 H62           -9.3377     5.5173    -1.8879 H       
  63 H63           -8.9357     4.5631     2.1634 H       
  64 H64          -10.5167     5.0372     1.4970 H       
  65 H65           -9.8380     3.4345     1.1239 H       
@<TRIPOS>BOND
   1    1    2 ar
   2    1    6 ar
   3    2    3 ar
   4    2   19 1
   5    3    4 ar
   6    4    5 ar
   7    4    7 1
   8    5    6 ar
   9    5    9 1
  10    6   35 1
  11    7    8 1
  12    7   14 1
  13    8    9 ar
  14    8   10 ar
  15    9   13 ar
  16   10   11 ar
  17   10   36 1
  18   11   12 ar
  19   12   13 ar
  20   12   37 1
  21   13   38 1
  22   14   15 1
  23   14   18 1
  24   14   39 1
  25   15   16 1
  26   15   40 1
  27   15   41 1
  28   16   17 1
  29   16   42 1
  30   16   43 1
  31   17   18 1
  32   17   44 1
  33   17   45 1
  34   18   46 1
  35   18   47 1
  36   19   20 1
  37   19   48 1
  38   20   21 ar
  39   20   25 ar
  40   21   22 ar
  41   22   23 ar
  42   23   24 ar
  43   23   26 1
  44   24   25 ar
  45   24   49 1
  46   25   50 1
  47   26   27 1
  48   26   31 1
  49   27   28 1
  50   27   51 1
  51   27   52 1
  52   28   29 1
  53   28   53 1
  54   28   54 1
  55   29   30 1
  56   29   32 1
  57   29   55 1
  58   30   31 1
  59   30   56 1
  60   30   57 1
  61   31   58 1
  62   31   59 1
  63   32   33 1
  64   32   34 1
  65   33   60 1
  66   33   61 1
  67   33   62 1
  68   34   63 1
  69   34   64 1
  70   34   65 1

#	End of record

