#	Name: ASD01151014
#	Creating user name:	WinNT
#	Creation time:	15. 06. 2019 19:05

#	Modifying user name:	WinNT
#	Modification time:	15. 06. 2019 19:05

#	Program:	/corina/corina34_cracker 3.40 0067  02.08.2006

@<TRIPOS>MOLECULE
ASD01151014
  41   41    0    0    0
SMALL
NO_CHARGES


@<TRIPOS>ATOM
   1 C1            -0.2278     1.1055     0.0412 C.2     
   2 C2            -0.3584    -0.2679    -0.1167 C.2     
   3 N3            -1.6556    -0.5248    -0.3214 N.2     
   4 C4            -2.3386     0.5899    -0.3019 C.2     
   5 N5            -1.5110     1.6253    -0.0763 N.pl3   
   6 C6            -3.8291     0.6974    -0.4966 C.3     
   7 C7            -1.8897     3.0374     0.0175 C.3     
   8 C8             0.9649     1.8262     0.2789 C.2     
   9 O9             0.9271     3.1691     0.4110 O.3     
  10 O10            2.0260     1.2359     0.3643 O.2     
  11 C11            2.1700     3.8327     0.6497 C.3     
  12 C12            1.9290     5.3388     0.7705 C.3     
  13 N13            0.6667    -1.2013    -0.0710 N.pl3   
  14 C14           -4.5362     0.4641     0.8400 C.3     
  15 C15           -1.9600     3.6410    -1.3867 C.3     
  16 C16           -2.4845     5.0756    -1.2995 C.3     
  17 C17           -0.5628     3.6458    -2.0102 C.3     
  18 C18           -6.0394     0.6910     0.6681 C.3     
  19 H19           -4.0760     1.6913    -0.8697 H       
  20 H20           -4.1564    -0.0527    -1.2166 H       
  21 H21           -2.8644     3.1211     0.4981 H       
  22 H22           -1.1466     3.5745     0.6070 H       
  23 H23            2.6093     3.4597     1.5748 H       
  24 H24            2.8504     3.6391    -0.1796 H       
  25 H25            1.2486     5.5325     1.5998 H       
  26 H26            2.8770     5.8450     0.9526 H       
  27 H27            1.4897     5.7119    -0.1546 H       
  28 H28            1.5795    -0.9120     0.0838 H       
  29 H29            0.4707    -2.1433    -0.1940 H       
  30 H30           -4.3587    -0.5591     1.1712 H       
  31 H31           -4.1464     1.1594     1.5834 H       
  32 H32           -2.6317     3.0454    -2.0049 H       
  33 H33           -1.8128     5.6711    -0.6813 H       
  34 H34           -2.5346     5.5055    -2.2999 H       
  35 H35           -3.4799     5.0721    -0.8553 H       
  36 H36           -0.2043     2.6209    -2.1064 H       
  37 H37           -0.6063     4.1095    -2.9957 H       
  38 H38            0.1176     4.2104    -1.3727 H       
  39 H39           -6.2169     1.7142     0.3369 H       
  40 H40           -6.4292    -0.0043    -0.0753 H       
  41 H41           -6.5432     0.5248     1.6203 H       
@<TRIPOS>BOND
   1    1    2 2
   2    1    8 1
   3    1    5 1
   4    2    3 1
   5    2   13 1
   6    3    4 2
   7    4    5 1
   8    4    6 1
   9    5    7 1
  10    6   14 1
  11    6   19 1
  12    6   20 1
  13    7   15 1
  14    7   21 1
  15    7   22 1
  16    8    9 1
  17    8   10 2
  18    9   11 1
  19   11   12 1
  20   11   23 1
  21   11   24 1
  22   12   25 1
  23   12   26 1
  24   12   27 1
  25   13   28 1
  26   13   29 1
  27   14   18 1
  28   14   30 1
  29   14   31 1
  30   15   16 1
  31   15   17 1
  32   15   32 1
  33   16   33 1
  34   16   34 1
  35   16   35 1
  36   17   36 1
  37   17   37 1
  38   17   38 1
  39   18   39 1
  40   18   40 1
  41   18   41 1

#	End of record

