#	Name: ASD01670041
#	Creating user name:	WinNT
#	Creation time:	15. 06. 2019 19:22

#	Modifying user name:	WinNT
#	Modification time:	15. 06. 2019 19:22

#	Program:	/corina/corina34_cracker 3.40 0067  02.08.2006

@<TRIPOS>MOLECULE
ASD01670041
  59   61    0    0    0
SMALL
NO_CHARGES


@<TRIPOS>ATOM
   1 O1            -0.0790     0.2446    -0.4668 O.2     
   2 C2            -0.1669     1.4529    -0.5220 C.2     
   3 C3            -2.4345     2.9963    -3.9871 C.ar    
   4 N4             0.9430     2.2032    -0.6692 N.am    
   5 C5             2.2556     1.5592    -0.7624 C.3     
   6 C6             3.3380     2.6283    -0.9238 C.3     
   7 C7             4.7088     1.9557    -1.0212 C.3     
   8 C8             5.7912     3.0249    -1.1825 C.3     
   9 C9            -4.4928    -0.8674    -0.1529 C.3     
  10 O10           -3.9247     2.5290     0.7112 O.2     
  11 C11           -3.7273     1.4002     0.3047 C.2     
  12 C12           -1.5176     2.1151    -0.4323 C.3     
  13 C13           -2.2396     4.3648    -3.9911 C.ar    
  14 C14           -1.8110     5.0053    -2.8435 C.ar    
  15 C15           -1.5774     4.2773    -1.6919 C.ar    
  16 C16           -1.7723     2.9088    -1.6878 C.ar    
  17 C17           -2.2009     2.2683    -2.8354 C.ar    
  18 C18           -5.9068     0.7595     1.1859 C.3     
  19 C19           -5.7475     0.3157     2.6173 C.ar    
  20 C20           -4.6107    -0.3569     3.0075 C.ar    
  21 C21           -4.4567    -0.7683     4.3214 C.ar    
  22 C22           -5.4433    -0.5081     5.2570 C.ar    
  23 N23           -2.5546     1.0911    -0.2831 N.am    
  24 N24           -4.6813     0.4581     0.4419 N.am    
  25 O25           -5.5289    -0.8028     6.5874 O.3     
  26 C26           -6.9217    -0.6585     6.9233 C.3     
  27 O27           -7.4062     0.3022     5.9664 O.3     
  28 C28           -6.5986     0.1711     4.8776 C.ar    
  29 C29           -6.7514     0.5917     3.5511 C.ar    
  30 C30           -7.9669     1.3170     3.1394 C.2     
  31 O31           -8.9649     0.7001     2.8237 O.2     
  32 O32           -7.9712     2.6643     3.1132 O.3     
  33 H33           -2.7737     2.4965    -4.8824 H       
  34 H34            0.8728     3.1697    -0.7134 H       
  35 H35            2.4440     0.9854     0.1450 H       
  36 H36            2.2725     0.8920    -1.6243 H       
  37 H37            3.1495     3.2021    -1.8312 H       
  38 H38            3.3211     3.2955    -0.0620 H       
  39 H39            4.8972     1.3819    -0.1138 H       
  40 H40            4.7257     1.2886    -1.8830 H       
  41 H41            5.6028     3.5987    -2.0899 H       
  42 H42            5.7743     3.6920    -0.3207 H       
  43 H43            6.7678     2.5457    -1.2519 H       
  44 H44           -3.9999    -1.5216     0.5663 H       
  45 H45           -5.4626    -1.2868    -0.4205 H       
  46 H46           -3.8755    -0.7799    -1.0470 H       
  47 H47           -1.5388     2.7820     0.4296 H       
  48 H48           -2.4217     4.9336    -4.8910 H       
  49 H49           -1.6580     6.0744    -2.8469 H       
  50 H50           -1.2419     4.7776    -0.7955 H       
  51 H51           -2.3535     1.1991    -2.8321 H       
  52 H52           -6.7459     0.2315     0.7331 H       
  53 H53           -6.0947     1.8328     1.1571 H       
  54 H54           -3.8353    -0.5650     2.2851 H       
  55 H55           -3.5617    -1.2955     4.6175 H       
  56 H56           -2.3971     0.1905    -0.6075 H       
  57 H57           -7.4435    -1.6087     6.8099 H       
  58 H58           -7.0334    -0.2778     7.9385 H       
  59 H59           -8.8116     3.0967     2.9089 H       
@<TRIPOS>BOND
   1    1    2 2
   2    2    4 am
   3    2   12 1
   4    3   13 ar
   5    3   17 ar
   6    3   33 1
   7    4    5 1
   8    4   34 1
   9    5    6 1
  10    5   35 1
  11    5   36 1
  12    6    7 1
  13    6   37 1
  14    6   38 1
  15    7    8 1
  16    7   39 1
  17    7   40 1
  18    8   41 1
  19    8   42 1
  20    8   43 1
  21    9   24 1
  22    9   44 1
  23    9   45 1
  24    9   46 1
  25   10   11 2
  26   11   23 am
  27   11   24 am
  28   12   16 1
  29   12   23 1
  30   12   47 1
  31   13   14 ar
  32   13   48 1
  33   14   15 ar
  34   14   49 1
  35   15   16 ar
  36   15   50 1
  37   16   17 ar
  38   17   51 1
  39   18   19 1
  40   18   24 1
  41   18   52 1
  42   18   53 1
  43   19   20 ar
  44   19   29 ar
  45   20   21 ar
  46   20   54 1
  47   21   22 ar
  48   21   55 1
  49   22   25 1
  50   22   28 ar
  51   23   56 1
  52   25   26 1
  53   26   27 1
  54   26   57 1
  55   26   58 1
  56   27   28 1
  57   28   29 ar
  58   29   30 1
  59   30   31 2
  60   30   32 1
  61   32   59 1

#	End of record

