#	Name: ASD00069136
#	Creating user name:	WinNT
#	Creation time:	15. 06. 2019 18:29

#	Modifying user name:	WinNT
#	Modification time:	15. 06. 2019 18:29

#	Program:	/corina/corina34_cracker 3.40 0067  02.08.2006

@<TRIPOS>MOLECULE
ASD00069136
  57   60    0    0    0
SMALL
NO_CHARGES


@<TRIPOS>ATOM
   1 C1            -0.0972     1.1981    -0.5382 C.2     
   2 N2             0.0007    -0.0058    -0.0196 N.2     
   3 C3             1.2450    -0.4623    -0.2085 C.2     
   4 C4             1.9522     0.5001    -0.8739 C.2     
   5 N5             1.1116     1.5384    -1.0796 N.pl3   
   6 C6            -1.3087     2.0381    -0.5413 C.2     
   7 O7            -1.2827     3.1411    -1.0532 O.2     
   8 N8            -2.4451     1.5838     0.0232 N.am    
   9 C9             1.4743    -3.9097     1.2932 C.ar    
  10 C10            0.9461    -2.6858     0.9029 C.ar    
  11 C11            1.7654    -1.7811     0.2282 C.ar    
  12 C12            3.0917    -2.1502    -0.0268 C.ar    
  13 C13            3.5386    -3.3835     0.3937 C.ar    
  14 N14            2.7359    -4.2165     1.0304 N.ar    
  15 N15            0.6720    -4.8201     1.9718 N.pl3   
  16 C16           -0.7226    -4.4863     2.2717 C.3     
  17 C17           -3.5605     2.4245     0.1262 C.ar    
  18 C18           -4.8463     1.8958     0.0209 C.ar    
  19 C19           -5.9478     2.7348     0.1244 C.ar    
  20 C20           -5.7664     4.0914     0.3316 C.ar    
  21 C21           -4.4905     4.6141     0.4353 C.ar    
  22 C22           -3.3890     3.7845     0.3391 C.ar    
  23 F23           -7.1958     2.2276     0.0226 F       
  24 N24           -5.0263     0.5226    -0.1892 N.3     
  25 C25           -5.7972    -0.0806     0.9054 C.3     
  26 C26           -5.8496    -1.5986     0.7182 C.3     
  27 C27           -6.5033    -1.9195    -0.6287 C.3     
  28 C28           -5.7091    -1.2398    -1.7475 C.3     
  29 C29           -5.6608     0.2678    -1.4888 C.3     
  30 C30           -6.5036    -3.4336    -0.8491 C.3     
  31 N31           -7.2362    -3.7487    -2.0827 N.3     
  32 H32            2.9871     0.4420    -1.1772 H       
  33 H33            1.3261     2.3711    -1.5285 H       
  34 H34           -2.4905     0.6746     0.3582 H       
  35 H35           -0.0830    -2.4388     1.1184 H       
  36 H36            3.7561    -1.4763    -0.5472 H       
  37 H37            4.5607    -3.6735     0.1997 H       
  38 H38            1.0357    -5.6763     2.2467 H       
  39 H39           -1.2605    -4.3035     1.3415 H       
  40 H40           -1.1884    -5.3157     2.8038 H       
  41 H41           -0.7564    -3.5913     2.8929 H       
  42 H42           -6.6237     4.7433     0.4120 H       
  43 H43           -4.3542     5.6733     0.5963 H       
  44 H44           -2.3942     4.1961     0.4252 H       
  45 H45           -5.3194     0.1517     1.8572 H       
  46 H46           -6.8105     0.3211     0.9004 H       
  47 H47           -4.8374    -2.0027     0.7369 H       
  48 H48           -6.4350    -2.0445     1.5223 H       
  49 H49           -7.5286    -1.5497    -0.6333 H       
  50 H50           -4.6947    -1.6382    -1.7676 H       
  51 H51           -6.1942    -1.4293    -2.7051 H       
  52 H52           -6.6747     0.6679    -1.4826 H       
  53 H53           -5.0839     0.7531    -2.2760 H       
  54 H54           -5.4766    -3.7883    -0.9357 H       
  55 H55           -6.9872    -3.9236    -0.0040 H       
  56 H56           -7.2506    -4.7436    -2.2506 H       
  57 H57           -8.1723    -3.3734    -2.0533 H       
@<TRIPOS>BOND
   1    1    2 2
   2    1    5 1
   3    1    6 1
   4    2    3 1
   5    3    4 2
   6    3   11 1
   7    4    5 1
   8    4   32 1
   9    5   33 1
  10    6    7 2
  11    6    8 am
  12    8   17 1
  13    8   34 1
  14    9   10 ar
  15    9   14 ar
  16    9   15 1
  17   10   11 ar
  18   10   35 1
  19   11   12 ar
  20   12   13 ar
  21   12   36 1
  22   13   14 ar
  23   13   37 1
  24   15   16 1
  25   15   38 1
  26   16   39 1
  27   16   40 1
  28   16   41 1
  29   17   18 ar
  30   17   22 ar
  31   18   19 ar
  32   18   24 1
  33   19   20 ar
  34   19   23 1
  35   20   21 ar
  36   20   42 1
  37   21   22 ar
  38   21   43 1
  39   22   44 1
  40   24   25 1
  41   24   29 1
  42   25   26 1
  43   25   45 1
  44   25   46 1
  45   26   27 1
  46   26   47 1
  47   26   48 1
  48   27   28 1
  49   27   30 1
  50   27   49 1
  51   28   29 1
  52   28   50 1
  53   28   51 1
  54   29   52 1
  55   29   53 1
  56   30   31 1
  57   30   54 1
  58   30   55 1
  59   31   56 1
  60   31   57 1

#	End of record

