#	Name: ASD00061037
#	Creating user name:	WinNT
#	Creation time:	15. 06. 2019 18:29

#	Modifying user name:	WinNT
#	Modification time:	15. 06. 2019 18:29

#	Program:	/corina/corina34_cracker 3.40 0067  02.08.2006

@<TRIPOS>MOLECULE
ASD00061037
  45   47    0    0    0
SMALL
NO_CHARGES


@<TRIPOS>ATOM
   1 C1            -0.4262     3.8197    -0.3519 C.ar    
   2 C2            -0.9216     2.5293    -0.4381 C.ar    
   3 C3            -0.0574     1.4472    -0.4402 C.ar    
   4 C4             1.3038     1.6475    -0.3565 C.ar    
   5 C5             1.8117     2.9479    -0.2692 C.ar    
   6 C6             0.9326     4.0359    -0.2676 C.ar    
   7 C7             3.2633     3.1702    -0.1790 C.2     
   8 C8             3.8064     4.5728    -0.0852 C.3     
   9 O9             4.0226     2.2248    -0.1803 O.2     
  10 C10            5.3189     4.5200     0.1393 C.3     
  11 C11            5.8816     5.9175     0.0999 C.ar    
  12 C12            5.4316     6.8646     1.0174 C.ar    
  13 C13            5.9189     8.1356     1.0087 C.ar    
  14 C14            6.8905     8.5012     0.0620 C.ar    
  15 C15            7.3486     7.5375    -0.8712 C.ar    
  16 C16            6.8259     6.2341    -0.8281 C.ar    
  17 I17           -2.9886     2.2128    -0.5651 I       
  18 C18            7.4167     9.8038     0.0217 C.ar    
  19 C19            8.3565    10.1218    -0.9099 C.ar    
  20 C20            8.8070     9.1742    -1.8274 C.ar    
  21 C21            8.3203     7.9034    -1.8185 C.ar    
  22 C22            5.6105     3.8911     1.5032 C.3     
  23 C23            7.0927     3.9376     1.7713 C.2     
  24 O24            7.5098     4.4794     2.7674 O.2     
  25 O25            7.9496     3.3771     0.9033 O.3     
  26 C26            4.8816     4.6582     2.5762 C.2     
  27 O27            5.4673     5.4905     3.2275 O.2     
  28 O28            3.5818     4.4169     2.8085 O.3     
  29 H29           -1.1060     4.6590    -0.3553 H       
  30 H30           -0.4511     0.4437    -0.5073 H       
  31 H31            1.9765     0.8026    -0.3579 H       
  32 H32            1.3174     5.0428    -0.2009 H       
  33 H33            3.5949     5.1070    -1.0114 H       
  34 H34            3.3331     5.0906     0.7491 H       
  35 H35            5.7817     3.9198    -0.6440 H       
  36 H36            4.6848     6.5862     1.7462 H       
  37 H37            5.5602     8.8594     1.7256 H       
  38 H38            7.1656     5.4894    -1.5327 H       
  39 H39            7.0769    10.5486     0.7260 H       
  40 H40            8.7589    11.1236    -0.9389 H       
  41 H41            9.5536     9.4527    -2.5564 H       
  42 H42            8.6791     7.1796    -2.5353 H       
  43 H43            5.2733     2.8546     1.5049 H       
  44 H44            8.8930     3.4966     1.0786 H       
  45 H45            3.1572     4.9338     3.5068 H       
@<TRIPOS>BOND
   1    1    2 ar
   2    1    6 ar
   3    1   29 1
   4    2    3 ar
   5    2   17 1
   6    3    4 ar
   7    3   30 1
   8    4    5 ar
   9    4   31 1
  10    5    6 ar
  11    5    7 1
  12    6   32 1
  13    7    8 1
  14    7    9 2
  15    8   10 1
  16    8   33 1
  17    8   34 1
  18   10   11 1
  19   10   22 1
  20   10   35 1
  21   11   12 ar
  22   11   16 ar
  23   12   13 ar
  24   12   36 1
  25   13   14 ar
  26   13   37 1
  27   14   15 ar
  28   14   18 ar
  29   15   16 ar
  30   15   21 ar
  31   16   38 1
  32   18   19 ar
  33   18   39 1
  34   19   20 ar
  35   19   40 1
  36   20   21 ar
  37   20   41 1
  38   21   42 1
  39   22   23 1
  40   22   26 1
  41   22   43 1
  42   23   24 2
  43   23   25 1
  44   25   44 1
  45   26   27 2
  46   26   28 1
  47   28   45 1

#	End of record

