#	Name: ASD03082365
#	Creating user name:	WinNT
#	Creation time:	15. 06. 2019 20:27

#	Modifying user name:	WinNT
#	Modification time:	15. 06. 2019 20:27

#	Program:	/corina/corina34_cracker 3.40 0067  02.08.2006

@<TRIPOS>MOLECULE
ASD03082365
  49   51    0    0    0
SMALL
NO_CHARGES


@<TRIPOS>ATOM
   1 C1            -2.8843     0.8669     1.4785 C.ar    
   2 C2            -2.7314    -0.2818     0.7125 C.ar    
   3 C3            -3.8218    -0.8091     0.0315 C.ar    
   4 C4            -5.0530    -0.1902     0.1183 C.ar    
   5 C5            -5.2016     0.9536     0.8816 C.ar    
   6 C6            -4.1187     1.4809     1.5609 C.ar    
   7 N7            -1.4841    -0.9051     0.6266 N.pl3   
   8 C8            -1.4051    -2.2841     0.4054 C.2     
   9 C9            -0.2251    -3.0196     0.1998 C.2     
  10 N10           -2.4196    -3.1156     0.3597 N.2     
  11 N11           -1.9207    -4.4022     0.1187 N.pl3   
  12 C12           -0.5680    -4.3154     0.0246 C.2     
  13 C13           -2.6801    -5.5700     0.0005 C.ar    
  14 C14           -2.2694    -6.7543     0.6089 C.ar    
  15 C15           -3.8706    -5.5783    -0.7243 C.ar    
  16 C16           -4.5912    -6.7511    -0.8168 C.ar    
  17 N17           -4.1662    -7.8542    -0.2302 N.ar    
  18 C18           -3.0475    -7.8854     0.4687 C.ar    
  19 C19           -5.8802    -6.7727    -1.5972 C.3     
  20 H20           -2.7345    -8.8089     0.9330 H       
  21 C21            0.3801    -5.4587    -0.2304 C.3     
  22 C22            0.9872    -5.9230     1.0951 C.3     
  23 C23            1.8416    -7.1695     0.8557 C.3     
  24 C24            2.3470    -7.7064     2.1963 C.3     
  25 O25            1.8038    -4.8823     1.6355 O.3     
  26 C26           -4.2856     2.7271     2.3916 C.3     
  27 F27           -5.6137     3.1610     2.3199 F       
  28 F28           -3.9575     2.4476     3.7226 F       
  29 F29           -3.4405     3.7295     1.9036 F       
  30 H30           -2.0399     1.2769     2.0127 H       
  31 H31           -3.7063    -1.7019    -0.5652 H       
  32 H32           -5.9009    -0.5996    -0.4107 H       
  33 H33           -6.1656     1.4361     0.9471 H       
  34 H34           -0.6728    -0.3817     0.7203 H       
  35 H35            0.7781    -2.6200     0.1842 H       
  36 H36           -1.3546    -6.7868     1.1821 H       
  37 H37           -4.2243    -4.6789    -1.2065 H       
  38 H38           -5.6720    -7.0298    -2.6357 H       
  39 H39           -6.5529    -7.5148    -1.1671 H       
  40 H40           -6.3482    -5.7893    -1.5531 H       
  41 H41           -0.1621    -6.2846    -0.6908 H       
  42 H42            1.1756    -5.1289    -0.8986 H       
  43 H43            0.1881    -6.1597     1.7976 H       
  44 H44            1.2403    -7.9329     0.3620 H       
  45 H45            2.6915    -6.9115     0.2239 H       
  46 H46            1.4971    -7.9643     2.8281 H       
  47 H47            2.9557    -8.5944     2.0258 H       
  48 H48            2.9483    -6.9430     2.6900 H       
  49 H49            2.5370    -4.6199     1.0622 H       
@<TRIPOS>BOND
   1    1    2 ar
   2    1    6 ar
   3    1   30 1
   4    2    3 ar
   5    2    7 1
   6    3    4 ar
   7    3   31 1
   8    4    5 ar
   9    4   32 1
  10    5    6 ar
  11    5   33 1
  12    6   26 1
  13    7    8 1
  14    7   34 1
  15    8    9 1
  16    8   10 2
  17    9   12 2
  18    9   35 1
  19   10   11 1
  20   11   12 1
  21   11   13 1
  22   12   21 1
  23   13   14 ar
  24   13   15 ar
  25   14   18 ar
  26   14   36 1
  27   15   16 ar
  28   15   37 1
  29   16   17 ar
  30   16   19 1
  31   17   18 ar
  32   18   20 1
  33   19   38 1
  34   19   39 1
  35   19   40 1
  36   21   22 1
  37   21   41 1
  38   21   42 1
  39   22   23 1
  40   22   25 1
  41   22   43 1
  42   23   24 1
  43   23   44 1
  44   23   45 1
  45   24   46 1
  46   24   47 1
  47   24   48 1
  48   25   49 1
  49   26   27 1
  50   26   28 1
  51   26   29 1

#	End of record

