#	Name: ASD01720014
#	Creating user name:	WinNT
#	Creation time:	15. 06. 2019 19:23

#	Modifying user name:	WinNT
#	Modification time:	15. 06. 2019 19:23

#	Program:	/corina/corina34_cracker 3.40 0067  02.08.2006

@<TRIPOS>MOLECULE
ASD01720014
  19   18    0    0    0
SMALL
NO_CHARGES


@<TRIPOS>ATOM
   1 C1            -0.0184     1.5028     0.0103 C.2     
   2 C2             0.0021    -0.0041     0.0020 C.3     
   3 C3            -0.8070    -0.5316     1.1886 C.3     
   4 C4            -0.8910    -2.0573     1.1106 C.3     
   5 C5            -1.7001    -2.5849     2.2972 C.3     
   6 O6             1.0191     2.1207     0.0037 O.2     
   7 O7            -1.6807    -4.0137     2.2893 O.3     
   8 O8            -1.5313    -2.4374    -0.1091 O.3     
   9 O9            -0.1668    -0.1516     2.4083 O.3     
  10 H10           -0.9609     2.0300     0.0176 H       
  11 H11           -0.4361    -0.3683    -0.9272 H       
  12 H12            1.0315    -0.3539     0.0799 H       
  13 H13           -1.8119    -0.1104     1.1592 H       
  14 H14            0.1139    -2.4785     1.1400 H       
  15 H15           -1.2619    -2.2207     3.2264 H       
  16 H16           -2.7295    -2.2350     2.2193 H       
  17 H17           -2.1751    -4.4178     3.0156 H       
  18 H18           -2.4314    -2.0968    -0.2035 H       
  19 H19            0.7334    -0.4921     2.5027 H       
@<TRIPOS>BOND
   1    1    2 1
   2    1    6 2
   3    1   10 1
   4    2    3 1
   5    2   11 1
   6    2   12 1
   7    3    4 1
   8    3    9 1
   9    3   13 1
  10    4    5 1
  11    4    8 1
  12    4   14 1
  13    5    7 1
  14    5   15 1
  15    5   16 1
  16    7   17 1
  17    8   18 1
  18    9   19 1

#	End of record

