#	Name: ASD01230558
#	Creating user name:	WinNT
#	Creation time:	15. 06. 2019 19:14

#	Modifying user name:	WinNT
#	Modification time:	15. 06. 2019 19:14

#	Program:	/corina/corina34_cracker 3.40 0067  02.08.2006

@<TRIPOS>MOLECULE
ASD01230558
  43   46    0    0    0
SMALL
NO_CHARGES


@<TRIPOS>ATOM
   1 S1             1.2312     0.8991     1.3245 S.o2    
   2 N2             0.8985    -0.6738     0.9333 N.am    
   3 C3             1.7538    -1.4305     0.2894 C.2     
   4 N4             2.9931    -1.0433    -0.1344 N.pl3   
   5 C5             3.5224     0.3147     0.0167 C.3     
   6 C6             3.0516     0.9323     1.3364 C.3     
   7 C7             1.3128    -2.8146     0.0142 C.2     
   8 C8             2.1751    -3.6790    -0.6244 C.2     
   9 C9             3.4456    -3.2192    -0.9972 C.2     
  10 C10            3.8183    -1.9519    -0.7491 C.2     
  11 C11           -0.0376    -3.2661     0.4201 C.ar    
  12 C12           -0.1809    -4.2612     1.3877 C.ar    
  13 C13           -1.4400    -4.6791     1.7631 C.ar    
  14 C14           -2.5647    -4.1111     1.1795 C.ar    
  15 C15           -2.4260    -3.1205     0.2162 C.ar    
  16 C16           -1.1702    -2.6935    -0.1600 C.ar    
  17 O17           -3.8041    -4.5258     1.5516 O.3     
  18 C18           -4.2902    -4.0922     2.7417 C.ar    
  19 C19           -5.5057    -4.5787     3.2069 C.ar    
  20 C20           -5.9901    -4.1287     4.4224 C.ar    
  21 C21           -5.2379    -3.2033     5.1334 C.ar    
  22 C22           -4.0384    -2.7631     4.6104 C.ar    
  23 N23           -3.5999    -3.2144     3.4506 N.ar    
  24 C24           -6.2862    -5.5826     2.3982 C.3     
  25 F25           -7.4646    -5.9126     3.0763 F       
  26 F26           -6.6038    -5.0319     1.1520 F       
  27 F27           -5.5149    -6.7354     2.2157 F       
  28 O28            0.7201     1.6544     0.2348 O.2     
  29 O29            0.7152     1.0575     2.6390 O.2     
  30 H30            4.6117     0.2792     0.0049 H       
  31 H31            3.1744     0.9304    -0.8127 H       
  32 H32            3.4039     1.9610     1.4117 H       
  33 H33            3.4283     0.3473     2.1755 H       
  34 H34            1.8767    -4.6955    -0.8343 H       
  35 H35            4.1334    -3.8912    -1.4890 H       
  36 H36            4.8074    -1.6354    -1.0458 H       
  37 H37            0.6934    -4.7037     1.8417 H       
  38 H38           -1.5517    -5.4496     2.5117 H       
  39 H39           -3.3029    -2.6812    -0.2358 H       
  40 H40           -1.0631    -1.9199    -0.9060 H       
  41 H41           -6.9320    -4.4888     4.8092 H       
  42 H42           -5.5876    -2.8315     6.0852 H       
  43 H43           -3.4497    -2.0430     5.1594 H       
@<TRIPOS>BOND
   1    1    2 am
   2    1    6 1
   3    1   28 2
   4    1   29 2
   5    2    3 2
   6    3    4 1
   7    3    7 1
   8    4    5 1
   9    4   10 1
  10    5    6 1
  11    5   30 1
  12    5   31 1
  13    6   32 1
  14    6   33 1
  15    7    8 2
  16    7   11 1
  17    8    9 1
  18    8   34 1
  19    9   10 2
  20    9   35 1
  21   10   36 1
  22   11   12 ar
  23   11   16 ar
  24   12   13 ar
  25   12   37 1
  26   13   14 ar
  27   13   38 1
  28   14   15 ar
  29   14   17 1
  30   15   16 ar
  31   15   39 1
  32   16   40 1
  33   17   18 1
  34   18   19 ar
  35   18   23 ar
  36   19   20 ar
  37   19   24 1
  38   20   21 ar
  39   20   41 1
  40   21   22 ar
  41   21   42 1
  42   22   23 ar
  43   22   43 1
  44   24   25 1
  45   24   26 1
  46   24   27 1

#	End of record

