#	Name: ASD01230019
#	Creating user name:	WinNT
#	Creation time:	15. 06. 2019 19:11

#	Modifying user name:	WinNT
#	Modification time:	15. 06. 2019 19:11

#	Program:	/corina/corina34_cracker 3.40 0067  02.08.2006

@<TRIPOS>MOLECULE
ASD01230019
  55   58    0    0    0
SMALL
NO_CHARGES


@<TRIPOS>ATOM
   1 C1            -0.0187     1.5258     0.0104 C.3     
   2 C2             0.0021    -0.0041     0.0020 C.3     
   3 C3             0.7421    -0.5109     1.2415 C.3     
   4 S4            -1.6997    -0.6320     0.0149 S.o2    
   5 O5            -1.7138    -2.0386    -0.1864 O.2     
   6 O6            -2.4435    -0.0351     1.0684 O.2     
   7 N7            -2.3782    -0.0153    -1.3642 N.am    
   8 C8            -2.7399    -1.5694    -3.2587 C.3     
   9 C9            -1.8762    -0.4306    -2.6764 C.3     
  10 C10           -2.0648     0.6937    -3.7167 C.3     
  11 C11           -2.3846    -0.0170    -5.0146 C.ar    
  12 C12           -2.3393     0.4402    -6.3190 C.ar    
  13 C13           -2.6837    -0.4069    -7.3685 C.ar    
  14 C14           -3.0741    -1.7170    -7.0980 C.ar    
  15 C15           -3.1163    -2.1643    -5.7946 C.ar    
  16 C16           -2.7728    -1.3184    -4.7515 C.ar    
  17 C17           -2.6359     0.0829    -8.7685 C.ar    
  18 C18           -2.2457     1.3939    -9.0372 C.ar    
  19 C19           -2.2021     1.8484   -10.3399 C.ar    
  20 C20           -2.5447     1.0072   -11.3816 C.ar    
  21 C21           -2.9345    -0.3014   -11.1232 C.ar    
  22 C22           -2.9752    -0.7673    -9.8171 C.ar    
  23 N23           -3.2801    -1.1489   -12.1785 N.am    
  24 C24           -2.8242    -1.0347   -13.5720 C.3     
  25 C25           -3.8879    -1.6107   -14.5262 C.3     
  26 C26           -4.3140    -2.9518   -13.8620 C.3     
  27 S27           -4.2811    -2.4826   -12.0884 S.o2    
  28 O28           -3.5676    -3.4384   -11.3160 O.2     
  29 O29           -5.5375    -1.9683   -11.6684 O.2     
  30 H30            1.0039     1.9031     0.0027 H       
  31 H31           -0.5459     1.8868    -0.8726 H       
  32 H32           -0.5289     1.8773     0.9072 H       
  33 H33            0.5123    -0.3556    -0.8948 H       
  34 H34            0.2319    -0.1594     2.1383 H       
  35 H35            0.7568    -1.6008     1.2356 H       
  36 H36            1.7647    -0.1336     1.2338 H       
  37 H37           -3.1078     0.6209    -1.3031 H       
  38 H38           -2.2830    -2.5362    -3.0478 H       
  39 H39           -3.7479    -1.5285    -2.8460 H       
  40 H40           -0.8306    -0.7315    -2.6119 H       
  41 H41           -2.8915     1.3424    -3.4270 H       
  42 H42           -1.1468     1.2725    -3.8187 H       
  43 H43           -2.0364     1.4564    -6.5238 H       
  44 H44           -3.3431    -2.3799    -7.9070 H       
  45 H45           -3.4192    -3.1796    -5.5849 H       
  46 H46           -1.9776     2.0543    -8.2258 H       
  47 H47           -1.8998     2.8646   -10.5457 H       
  48 H48           -2.5097     1.3678   -12.3990 H       
  49 H49           -3.2739    -1.7851    -9.6142 H       
  50 H50           -2.6543     0.0150   -13.8117 H       
  51 H51           -1.8925    -1.5872   -13.6938 H       
  52 H52           -4.7396    -0.9345   -14.6003 H       
  53 H53           -3.4578    -1.7928   -15.5111 H       
  54 H54           -5.3159    -3.2453   -14.1753 H       
  55 H55           -3.5916    -3.7411   -14.0702 H       
@<TRIPOS>BOND
   1    1    2 1
   2    1   30 1
   3    1   31 1
   4    1   32 1
   5    2    3 1
   6    2    4 1
   7    2   33 1
   8    3   34 1
   9    3   35 1
  10    3   36 1
  11    4    5 2
  12    4    6 2
  13    4    7 am
  14    7    9 1
  15    7   37 1
  16    8    9 1
  17    8   16 1
  18    8   38 1
  19    8   39 1
  20    9   10 1
  21    9   40 1
  22   10   11 1
  23   10   41 1
  24   10   42 1
  25   11   12 ar
  26   11   16 ar
  27   12   13 ar
  28   12   43 1
  29   13   14 ar
  30   13   17 1
  31   14   15 ar
  32   14   44 1
  33   15   16 ar
  34   15   45 1
  35   17   18 ar
  36   17   22 ar
  37   18   19 ar
  38   18   46 1
  39   19   20 ar
  40   19   47 1
  41   20   21 ar
  42   20   48 1
  43   21   22 ar
  44   21   23 1
  45   22   49 1
  46   23   24 1
  47   23   27 am
  48   24   25 1
  49   24   50 1
  50   24   51 1
  51   25   26 1
  52   25   52 1
  53   25   53 1
  54   26   27 1
  55   26   54 1
  56   26   55 1
  57   27   28 2
  58   27   29 2

#	End of record

