#	Name: ASD03240774
#	Creating user name:	WinNT
#	Creation time:	15. 06. 2019 20:35

#	Modifying user name:	WinNT
#	Modification time:	15. 06. 2019 20:35

#	Program:	/corina/corina34_cracker 3.40 0067  02.08.2006

@<TRIPOS>MOLECULE
ASD03240774
  79   85    0    0    0
SMALL
NO_CHARGES


@<TRIPOS>ATOM
   1 C1            -0.8895     2.9001    -0.9905 C.2     
   2 N2            -1.0856     1.5704    -1.0330 N.2     
   3 C3            -0.0938     0.7202    -0.9649 C.2     
   4 C4             1.2703     1.2291    -0.8387 C.ar    
   5 C5             1.4695     2.6257    -0.7947 C.ar    
   6 N6             0.3603     3.4457    -0.8733 N.pl3   
   7 C7             2.3715     0.3704    -0.7610 C.ar    
   8 C8             3.6350     0.9404    -0.6418 C.ar    
   9 C9             3.7544     2.3431    -0.6045 C.ar    
  10 N10            2.6877     3.1249    -0.6807 N.ar    
  11 N11            0.2206     4.8387    -0.8583 N.2     
  12 C12           -1.0522     5.1371    -0.9610 C.2     
  13 C13           -1.7852     3.9596    -1.0405 C.2     
  14 C14            5.0968     2.9553    -0.4772 C.ar    
  15 C15            5.3823     4.1577    -1.1241 C.ar    
  16 C16            6.6349     4.7231    -1.0017 C.ar    
  17 C17            7.6068     4.0999    -0.2393 C.ar    
  18 C18            7.3297     2.9072     0.4047 C.ar    
  19 C19            6.0791     2.3348     0.2947 C.ar    
  20 C20            8.9730     4.7227    -0.1103 C.3     
  21 N21            8.9917     5.6268     1.0474 N.3     
  22 C22           10.3595     6.0685     1.3482 C.3     
  23 C23           10.3598     6.8876     2.6408 C.3     
  24 C24            9.4378     8.0985     2.4723 C.3     
  25 C25            8.0311     7.6128     2.1120 C.3     
  26 C26            8.0983     6.7727     0.8347 C.3     
  27 C27            9.3872     8.8763     3.7620 C.2     
  28 N28            8.6328     9.9899     3.8482 N.am    
  29 O29           10.0253     8.5003     4.7225 O.2     
  30 C30            8.5079    10.6573     5.0717 C.ar    
  31 C31            9.5857    10.7160     5.9457 C.ar    
  32 C32            9.4593    11.3758     7.1521 C.ar    
  33 C33            8.2609    11.9775     7.4907 C.ar    
  34 C34            7.1861    11.9208     6.6229 C.ar    
  35 C35            7.3078    11.2672     5.4120 C.ar    
  36 S36           10.8261    11.4509     8.2616 S.o2    
  37 O37           10.2807    11.6645     9.5563 O.2     
  38 O38           11.6626    10.3473     7.9430 O.2     
  39 N39           11.6877    12.8144     7.8864 N.am    
  40 C40            4.8406     0.0819    -0.5547 C.ar    
  41 C41            4.8845    -0.9724     0.3563 C.ar    
  42 C42            6.0091    -1.7685     0.4326 C.ar    
  43 C43            7.0916    -1.5219    -0.3926 C.ar    
  44 C44            7.0538    -0.4771    -1.2984 C.ar    
  45 C45            5.9324     0.3223    -1.3873 C.ar    
  46 C46           -1.6268     6.5301    -0.9830 C.3     
  47 H47           -0.2805    -0.3429    -1.0011 H       
  48 H48            2.2450    -0.7018    -0.7922 H       
  49 H49           -2.8589     3.8824    -1.1277 H       
  50 H50            4.6245     4.6449    -1.7198 H       
  51 H51            6.8573     5.6538    -1.5024 H       
  52 H52            8.0925     2.4255     0.9984 H       
  53 H53            5.8625     1.4062     0.8018 H       
  54 H54            9.7178     3.9390     0.0287 H       
  55 H55            9.2025     5.2858    -1.0148 H       
  56 H56           11.0038     5.1978     1.4698 H       
  57 H57           10.7310     6.6834     0.5285 H       
  58 H58           10.0013     6.2691     3.4637 H       
  59 H59           11.3726     7.2285     2.8554 H       
  60 H60            9.8179     8.7375     1.6751 H       
  61 H61            7.6360     7.0057     2.9265 H       
  62 H62            7.3802     8.4718     1.9488 H       
  63 H63            8.4805     7.3843     0.0174 H       
  64 H64            7.1004     6.4134     0.5833 H       
  65 H65            8.1765    10.3286     3.0621 H       
  66 H66           10.5216    10.2458     5.6822 H       
  67 H67            8.1643    12.4923     8.4352 H       
  68 H68            6.2516    12.3916     6.8902 H       
  69 H69            6.4692    11.2269     4.7328 H       
  70 H70           12.1814    13.2819     8.5783 H       
  71 H71           11.6988    13.1455     6.9747 H       
  72 H72            4.0400    -1.1656     1.0013 H       
  73 H73            6.0444    -2.5853     1.1382 H       
  74 H74            7.9699    -2.1473    -0.3291 H       
  75 H75            7.9020    -0.2890    -1.9400 H       
  76 H76            5.9024     1.1352    -2.0978 H       
  77 H77           -1.6784     6.8856    -2.0121 H       
  78 H78           -2.6280     6.5170    -0.5524 H       
  79 H79           -0.9894     7.1952    -0.4004 H       
@<TRIPOS>BOND
   1    1    2 1
   2    1    6 1
   3    1   13 2
   4    2    3 2
   5    3    4 1
   6    3   47 1
   7    4    5 ar
   8    4    7 ar
   9    5    6 1
  10    5   10 ar
  11    6   11 1
  12    7    8 ar
  13    7   48 1
  14    8    9 ar
  15    8   40 1
  16    9   10 ar
  17    9   14 1
  18   11   12 2
  19   12   13 1
  20   12   46 1
  21   13   49 1
  22   14   15 ar
  23   14   19 ar
  24   15   16 ar
  25   15   50 1
  26   16   17 ar
  27   16   51 1
  28   17   18 ar
  29   17   20 1
  30   18   19 ar
  31   18   52 1
  32   19   53 1
  33   20   21 1
  34   20   54 1
  35   20   55 1
  36   21   22 1
  37   21   26 1
  38   22   23 1
  39   22   56 1
  40   22   57 1
  41   23   24 1
  42   23   58 1
  43   23   59 1
  44   24   25 1
  45   24   27 1
  46   24   60 1
  47   25   26 1
  48   25   61 1
  49   25   62 1
  50   26   63 1
  51   26   64 1
  52   27   28 am
  53   27   29 2
  54   28   30 1
  55   28   65 1
  56   30   31 ar
  57   30   35 ar
  58   31   32 ar
  59   31   66 1
  60   32   33 ar
  61   32   36 1
  62   33   34 ar
  63   33   67 1
  64   34   35 ar
  65   34   68 1
  66   35   69 1
  67   36   37 2
  68   36   38 2
  69   36   39 am
  70   39   70 1
  71   39   71 1
  72   40   41 ar
  73   40   45 ar
  74   41   42 ar
  75   41   72 1
  76   42   43 ar
  77   42   73 1
  78   43   44 ar
  79   43   74 1
  80   44   45 ar
  81   44   75 1
  82   45   76 1
  83   46   77 1
  84   46   78 1
  85   46   79 1

#	End of record

