#	Name: ASD01941012
#	Creating user name:	WinNT
#	Creation time:	15. 06. 2019 20:13

#	Modifying user name:	WinNT
#	Modification time:	15. 06. 2019 20:13

#	Program:	/corina/corina34_cracker 3.40 0067  02.08.2006

@<TRIPOS>MOLECULE
ASD01941012
  48   50    0    0    0
SMALL
NO_CHARGES


@<TRIPOS>ATOM
   1 C1             0.3767     0.6088     1.0617 C.ar    
   2 C2             0.0105    -0.0216    -0.1057 C.ar    
   3 C3             0.8534     0.0007    -1.2095 C.ar    
   4 C4             2.0700     0.6570    -1.1471 C.ar    
   5 C5             2.4545     1.2986     0.0247 C.ar    
   6 C6             1.6029     1.2763     1.1405 C.ar    
   7 F7             0.4836    -0.6220    -2.3499 F       
   8 F8             2.8844     0.6738    -2.2249 F       
   9 N9             3.6765     1.9588     0.0913 N.pl3   
  10 C10            4.7988     1.3024     0.6074 C.ar    
  11 C11            4.6690     0.0400     1.1697 C.ar    
  12 C12            5.7793    -0.6063     1.6784 C.ar    
  13 C13            7.0200     0.0026     1.6283 C.ar    
  14 C14            7.1546     1.2610     1.0687 C.ar    
  15 C15            6.0488     1.9111     0.5532 C.ar    
  16 F16            6.1800     3.1395     0.0065 F       
  17 I17            8.6995    -0.9822     2.4019 I       
  18 C18            1.9991     1.9525     2.3879 C.2     
  19 O19            3.0722     2.5205     2.4574 O.2     
  20 N20            1.1722     1.9417     3.4522 N.am    
  21 O21            1.5530     2.5917     4.6512 O.3     
  22 C22            0.5818     2.5004     5.6955 C.3     
  23 C23            1.0963     3.2336     6.9359 C.3     
  24 O24            1.2139     4.6288     6.6500 O.3     
  25 C25           -1.3116    -0.7403    -0.1865 C.3     
  26 N26           -2.2541     0.0581    -0.9741 N.am    
  27 C27           -2.4419    -0.0304    -2.4303 C.3     
  28 C28           -3.5361     1.0142    -2.7234 C.3     
  29 O29           -3.8469     1.5759    -1.4154 O.3     
  30 C30           -3.0898     0.9842    -0.4846 C.2     
  31 O31           -3.1487     1.2666     0.6957 O.2     
  32 H32           -0.2848     0.5918     1.9152 H       
  33 H33            3.7508     2.8744    -0.2202 H       
  34 H34            3.7007    -0.4366     1.2100 H       
  35 H35            5.6781    -1.5884     2.1162 H       
  36 H36            8.1248     1.7339     1.0310 H       
  37 H37            0.3163     1.4887     3.3968 H       
  38 H38           -0.3513     2.9565     5.3648 H       
  39 H39            0.4076     1.4523     5.9391 H       
  40 H40            0.3970     3.0892     7.7595 H       
  41 H41            2.0723     2.8362     7.2142 H       
  42 H42            1.5356     5.1569     7.3934 H       
  43 H43           -1.1694    -1.7099    -0.6638 H       
  44 H44           -1.7087    -0.8847     0.8182 H       
  45 H45           -1.5193     0.2249    -2.9516 H       
  46 H46           -2.7791    -1.0277    -2.7129 H       
  47 H47           -3.1569     1.7877    -3.3912 H       
  48 H48           -4.4163     0.5354    -3.1526 H       
@<TRIPOS>BOND
   1    1    2 ar
   2    1    6 ar
   3    1   32 1
   4    2    3 ar
   5    2   25 1
   6    3    4 ar
   7    3    7 1
   8    4    5 ar
   9    4    8 1
  10    5    6 ar
  11    5    9 1
  12    6   18 1
  13    9   10 1
  14    9   33 1
  15   10   11 ar
  16   10   15 ar
  17   11   12 ar
  18   11   34 1
  19   12   13 ar
  20   12   35 1
  21   13   14 ar
  22   13   17 1
  23   14   15 ar
  24   14   36 1
  25   15   16 1
  26   18   19 2
  27   18   20 am
  28   20   21 1
  29   20   37 1
  30   21   22 1
  31   22   23 1
  32   22   38 1
  33   22   39 1
  34   23   24 1
  35   23   40 1
  36   23   41 1
  37   24   42 1
  38   25   26 1
  39   25   43 1
  40   25   44 1
  41   26   27 1
  42   26   30 am
  43   27   28 1
  44   27   45 1
  45   27   46 1
  46   28   29 1
  47   28   47 1
  48   28   48 1
  49   29   30 1
  50   30   31 2

#	End of record

