#	Name: ASD01900346
#	Creating user name:	WinNT
#	Creation time:	15. 06. 2019 19:51

#	Modifying user name:	WinNT
#	Modification time:	15. 06. 2019 19:51

#	Program:	/corina/corina34_cracker 3.40 0067  02.08.2006

@<TRIPOS>MOLECULE
ASD01900346
  45   48    0    0    0
SMALL
NO_CHARGES


@<TRIPOS>ATOM
   1 C1            -0.0168     1.3891     0.0097 C.ar    
   2 C2             0.0021    -0.0041     0.0020 C.ar    
   3 C3             1.2224    -0.6606    -0.0132 C.ar    
   4 C4             2.3820     0.0992    -0.0202 C.ar    
   5 C5             2.2884     1.4815    -0.0119 C.ar    
   6 N6             1.1169     2.0792     0.0026 N.ar    
   7 C7            -1.3131     2.1060     0.0197 C.2     
   8 O8            -2.3544     1.4790     0.0212 O.2     
   9 N9            -1.3378     3.4535     0.0271 N.am    
  10 N10           -4.0866     5.7298     0.0525 N.am    
  11 C11           -2.7427     5.4762     0.0448 C.2     
  12 C12           -2.5683     4.1341     0.0367 C.2     
  13 C13           -3.8517     3.5436     0.0395 C.2     
  14 C14           -4.7569     4.5428     0.0492 C.2     
  15 S15           -4.7846     7.2314     0.0702 S.o2    
  16 O16           -6.0849     7.0631     0.6180 O.2     
  17 O17           -3.8183     8.1166     0.6197 O.2     
  18 O18           -5.5415     8.8719    -5.5382 O.3     
  19 C19           -5.3595     8.4942    -4.2396 C.ar    
  20 C20           -6.3616     7.7943    -3.5820 C.ar    
  21 O21           -7.5173     7.4919    -4.2417 O.3     
  22 C22           -7.4013     6.5390    -5.3004 C.3     
  23 C23           -6.9726     7.2173    -6.5920 C.3     
  24 C24           -5.5768     7.8132    -6.4975 C.3     
  25 C25           -6.1875     7.4071    -2.2646 C.ar    
  26 C26           -5.0109     7.7211    -1.6072 C.ar    
  27 C27           -4.0130     8.4180    -2.2619 C.ar    
  28 C28           -4.1837     8.8062    -3.5792 C.ar    
  29 H29           -0.9212    -0.5644     0.0082 H       
  30 H30            1.2690    -1.7395    -0.0191 H       
  31 H31            3.3489    -0.3818    -0.0317 H       
  32 H32            3.1898     2.0763    -0.0170 H       
  33 H33           -0.5068     3.9539     0.0259 H       
  34 H34           -1.9574     6.2177     0.0448 H       
  35 H35           -4.0681     2.4856     0.0351 H       
  36 H36           -5.8302     4.4231     0.0537 H       
  37 H37           -6.6607     5.7874    -5.0269 H       
  38 H38           -8.3650     6.0531    -5.4530 H       
  39 H39           -6.9896     6.4841    -7.3984 H       
  40 H40           -7.6809     8.0123    -6.8252 H       
  41 H41           -5.2864     8.2032    -7.4730 H       
  42 H42           -4.8740     7.0353    -6.1993 H       
  43 H43           -6.9667     6.8628    -1.7517 H       
  44 H44           -3.0968     8.6602    -1.7439 H       
  45 H45           -3.4028     9.3501    -4.0899 H       
@<TRIPOS>BOND
   1    1    2 ar
   2    1    6 ar
   3    1    7 1
   4    2    3 ar
   5    2   29 1
   6    3    4 ar
   7    3   30 1
   8    4    5 ar
   9    4   31 1
  10    5    6 ar
  11    5   32 1
  12    7    8 2
  13    7    9 am
  14    9   12 1
  15    9   33 1
  16   10   11 1
  17   10   14 1
  18   10   15 am
  19   11   12 2
  20   11   34 1
  21   12   13 1
  22   13   14 2
  23   13   35 1
  24   14   36 1
  25   15   16 2
  26   15   17 2
  27   15   26 1
  28   18   19 1
  29   18   24 1
  30   19   20 ar
  31   19   28 ar
  32   20   21 1
  33   20   25 ar
  34   21   22 1
  35   22   23 1
  36   22   37 1
  37   22   38 1
  38   23   24 1
  39   23   39 1
  40   23   40 1
  41   24   41 1
  42   24   42 1
  43   25   26 ar
  44   25   43 1
  45   26   27 ar
  46   27   28 ar
  47   27   44 1
  48   28   45 1

#	End of record

