#	Name: ASD01881474
#	Creating user name:	WinNT
#	Creation time:	15. 06. 2019 19:42

#	Modifying user name:	WinNT
#	Modification time:	15. 06. 2019 19:42

#	Program:	/corina/corina34_cracker 3.40 0067  02.08.2006

@<TRIPOS>MOLECULE
ASD01881474
  58   60    0    0    0
SMALL
NO_CHARGES


@<TRIPOS>ATOM
   1 C1            -0.0167     1.3781     0.0096 C.ar    
   2 C2             0.0021    -0.0041     0.0020 C.ar    
   3 C3             1.2084    -0.6789    -0.0132 C.ar    
   4 C4             1.2289    -2.1857    -0.0210 C.3     
   5 O5             1.2222    -2.6552    -1.3706 O.3     
   6 C6             1.2387    -3.9992    -1.5553 C.ar    
   7 C7             1.2333    -4.5193    -2.8419 C.ar    
   8 C8             1.2668    -4.8495    -0.4531 C.ar    
   9 C9             1.2840    -6.2031    -0.6254 C.ar    
  10 C10            1.2740    -6.7465    -1.9170 C.ar    
  11 C11            1.2505    -5.8899    -3.0327 C.ar    
  12 C12            1.2081    -3.5927    -4.0301 C.3     
  13 O13            1.2402    -6.4041    -4.2875 O.3     
  14 C14            1.2930    -8.1993    -2.1047 C.2     
  15 O15            1.2843    -8.6665    -3.2244 O.2     
  16 C16            1.3234    -9.1134    -0.9069 C.3     
  17 C17            2.6419    -3.2584    -4.4466 C.3     
  18 C18            2.6164    -2.3176    -5.6529 C.3     
  19 C19            1.1709     2.0855     0.0021 C.ar    
  20 C20            2.3773     1.4107    -0.0131 C.ar    
  21 C21            2.3960     0.0285    -0.0217 C.ar    
  22 C22            1.1505     3.5924     0.0099 C.3     
  23 O23            2.1679     4.0871    -0.8632 O.3     
  24 C24            1.4035     4.0909     1.4094 C.ar    
  25 C25            2.7017     4.2377     1.8658 C.ar    
  26 C26            2.9429     4.6948     3.1491 C.ar    
  27 C27            1.8891     5.0074     3.9829 C.ar    
  28 C28            0.5770     4.8621     3.5288 C.ar    
  29 C29            0.3408     4.4052     2.2304 C.ar    
  30 C30           -0.5564     5.1944     4.4161 C.2     
  31 O31           -1.6969     5.0670     4.0181 O.2     
  32 O32           -0.3250     5.6388     5.6666 O.3     
  33 H33           -0.9592     1.9054     0.0170 H       
  34 H34           -0.9258    -0.5567     0.0083 H       
  35 H35            2.1287    -2.5395     0.4823 H       
  36 H36            0.3490    -2.5637     0.4996 H       
  37 H37            1.2753    -4.4353     0.5442 H       
  38 H38            1.3058    -6.8561     0.2345 H       
  39 H39            0.6929    -4.0783    -4.8588 H       
  40 H40            0.6837    -2.6749    -3.7640 H       
  41 H41            0.3539    -6.5628    -4.6402 H       
  42 H42            0.3032    -9.3490    -0.6038 H       
  43 H43            1.8474   -10.0335    -1.1654 H       
  44 H44            1.8414    -8.6187    -0.0854 H       
  45 H45            3.1571    -2.7727    -3.6179 H       
  46 H46            3.1663    -4.1762    -4.7126 H       
  47 H47            3.6378    -2.0795    -5.9496 H       
  48 H48            2.1011    -2.8033    -6.4816 H       
  49 H49            2.0920    -1.3998    -5.3868 H       
  50 H50            3.3051     1.9634    -0.0197 H       
  51 H51            3.3385    -0.4987    -0.0332 H       
  52 H52            0.1767     3.9443    -0.3307 H       
  53 H53            3.0626     3.8126    -0.6199 H       
  54 H54            3.5302     3.9941     1.2174 H       
  55 H55            3.9585     4.8067     3.4992 H       
  56 H56            2.0788     5.3634     4.9848 H       
  57 H57           -0.6718     4.2906     1.8728 H       
  58 H58           -1.0983     5.8434     6.2099 H       
@<TRIPOS>BOND
   1    1    2 ar
   2    1   19 ar
   3    1   33 1
   4    2    3 ar
   5    2   34 1
   6    3    4 1
   7    3   21 ar
   8    4    5 1
   9    4   35 1
  10    4   36 1
  11    5    6 1
  12    6    7 ar
  13    6    8 ar
  14    7   12 1
  15    7   11 ar
  16    8    9 ar
  17    8   37 1
  18    9   10 ar
  19    9   38 1
  20   10   11 ar
  21   10   14 1
  22   11   13 1
  23   12   17 1
  24   12   39 1
  25   12   40 1
  26   13   41 1
  27   14   15 2
  28   14   16 1
  29   16   42 1
  30   16   43 1
  31   16   44 1
  32   17   18 1
  33   17   45 1
  34   17   46 1
  35   18   47 1
  36   18   48 1
  37   18   49 1
  38   19   20 ar
  39   19   22 1
  40   20   21 ar
  41   20   50 1
  42   21   51 1
  43   22   23 1
  44   22   24 1
  45   22   52 1
  46   23   53 1
  47   24   25 ar
  48   24   29 ar
  49   25   26 ar
  50   25   54 1
  51   26   27 ar
  52   26   55 1
  53   27   28 ar
  54   27   56 1
  55   28   29 ar
  56   28   30 1
  57   29   57 1
  58   30   31 2
  59   30   32 1
  60   32   58 1

#	End of record

