#	Name: ASD01948184
#	Creating user name:	WinNT
#	Creation time:	15. 06. 2019 20:13

#	Modifying user name:	WinNT
#	Modification time:	15. 06. 2019 20:13

#	Program:	/corina/corina34_cracker 3.40 0067  02.08.2006

@<TRIPOS>MOLECULE
ASD01948184
  59   61    0    0    0
SMALL
NO_CHARGES


@<TRIPOS>ATOM
   1 C1             1.1282     1.1705    -0.9725 C.ar    
   2 C2             0.9122    -0.0675    -0.3968 C.ar    
   3 C3             1.9733    -0.7788     0.1314 C.ar    
   4 C4             3.2506    -0.2523     0.0834 C.ar    
   5 C5             3.4668     0.9854    -0.4931 C.ar    
   6 C6             2.4054     1.6973    -1.0200 C.ar    
   7 C7            -0.4802    -0.6415    -0.3445 C.3     
   8 O8            -0.7219    -1.4132    -1.5227 O.3     
   9 C9            -2.0603    -1.9016    -1.6332 C.3     
  10 C10           -2.6742    -1.4142    -2.9471 C.3     
  11 C11           -2.0482    -3.4314    -1.6125 C.3     
  12 C12           -1.5680    -3.9192    -0.2441 C.3     
  13 S13           -2.6703    -3.5511     1.1487 S.o2    
  14 O14           -2.2825    -4.2885     2.2999 O.2     
  15 O15           -2.9284    -2.1559     1.2251 O.2     
  16 O16           -4.0065    -4.1586     0.7464 O.3     
  17 C17           -0.7849    -5.2328    -0.1973 C.3     
  18 C18           -0.0617    -3.9018     0.0233 C.3     
  19 O19           -2.7740     0.0112    -2.9263 O.3     
  20 C20           -3.3379     0.5717    -4.1137 C.3     
  21 C21           -3.3951     2.0719    -3.9829 C.ar    
  22 C22           -2.3278     2.8435    -4.4029 C.ar    
  23 C23           -2.3802     4.2196    -4.2829 C.ar    
  24 C24           -3.5001     4.8242    -3.7433 C.ar    
  25 C25           -4.5678     4.0527    -3.3241 C.ar    
  26 C26           -4.5171     2.6769    -3.4481 C.ar    
  27 C27           -4.0504    -5.5835     0.8446 C.3     
  28 C28           -4.6703    -5.9835     2.1850 C.3     
  29 C29           -4.8976    -6.1477    -0.2977 C.3     
  30 H30            0.2999     1.7243    -1.3891 H       
  31 H31            1.8044    -1.7458     0.5818 H       
  32 H32            4.0795    -0.8077     0.4967 H       
  33 H33            4.4645     1.3970    -0.5300 H       
  34 H34            2.5744     2.6641    -1.4708 H       
  35 H35           -0.5775    -1.2795     0.5340 H       
  36 H36           -1.2057     0.1698    -0.2863 H       
  37 H37           -2.6524    -1.5316    -0.7961 H       
  38 H38           -2.0419    -1.7221    -3.7798 H       
  39 H39           -3.6678    -1.8462    -3.0662 H       
  40 H40           -3.0550    -3.8053    -1.7987 H       
  41 H41           -1.3749    -3.8000    -2.3864 H       
  42 H42           -0.9317    -5.8756     0.6706 H       
  43 H43           -0.6118    -5.7494    -1.1413 H       
  44 H44            0.5873    -3.5432    -0.7756 H       
  45 H45            0.2671    -3.6695     1.0363 H       
  46 H46           -2.7194     0.3050    -4.9707 H       
  47 H47           -4.3453     0.1809    -4.2570 H       
  48 H48           -1.4528     2.3712    -4.8245 H       
  49 H49           -1.5460     4.8224    -4.6103 H       
  50 H50           -3.5408     5.8993    -3.6488 H       
  51 H51           -5.4426     4.5250    -2.9022 H       
  52 H52           -5.3513     2.0741    -3.1207 H       
  53 H53           -3.0386    -5.9836     0.7785 H       
  54 H54           -5.6821    -5.5834     2.2512 H       
  55 H55           -4.7037    -7.0704     2.2600 H       
  56 H56           -4.0667    -5.5815     2.9988 H       
  57 H57           -4.5060    -5.7917    -1.2506 H       
  58 H58           -4.8607    -7.2368    -0.2738 H       
  59 H59           -5.9296    -5.8165    -0.1825 H       
@<TRIPOS>BOND
   1    1    2 ar
   2    1    6 ar
   3    1   30 1
   4    2    3 ar
   5    2    7 1
   6    3    4 ar
   7    3   31 1
   8    4    5 ar
   9    4   32 1
  10    5    6 ar
  11    5   33 1
  12    6   34 1
  13    7    8 1
  14    7   35 1
  15    7   36 1
  16    8    9 1
  17    9   10 1
  18    9   11 1
  19    9   37 1
  20   10   19 1
  21   10   38 1
  22   10   39 1
  23   11   12 1
  24   11   40 1
  25   11   41 1
  26   12   13 1
  27   12   17 1
  28   12   18 1
  29   13   14 2
  30   13   15 2
  31   13   16 1
  32   16   27 1
  33   17   18 1
  34   17   42 1
  35   17   43 1
  36   18   44 1
  37   18   45 1
  38   19   20 1
  39   20   21 1
  40   20   46 1
  41   20   47 1
  42   21   22 ar
  43   21   26 ar
  44   22   23 ar
  45   22   48 1
  46   23   24 ar
  47   23   49 1
  48   24   25 ar
  49   24   50 1
  50   25   26 ar
  51   25   51 1
  52   26   52 1
  53   27   28 1
  54   27   29 1
  55   27   53 1
  56   28   54 1
  57   28   55 1
  58   28   56 1
  59   29   57 1
  60   29   58 1
  61   29   59 1

#	End of record

