#	Name: ASD01917295
#	Creating user name:	WinNT
#	Creation time:	15. 06. 2019 20:09

#	Modifying user name:	WinNT
#	Modification time:	15. 06. 2019 20:09

#	Program:	/corina/corina34_cracker 3.40 0067  02.08.2006

@<TRIPOS>MOLECULE
ASD01917295
  51   54    0    0    0
SMALL
NO_CHARGES


@<TRIPOS>ATOM
   1 C1            -0.0168     1.3896     0.0097 C.ar    
   2 C2             0.0021    -0.0041     0.0020 C.ar    
   3 C3             1.2210    -0.6608    -0.0132 C.ar    
   4 C4             2.3830     0.1001    -0.0202 C.ar    
   5 C5             2.2882     1.4856    -0.0119 C.ar    
   6 N6             1.1163     2.0811     0.0026 N.ar    
   7 C7            -1.3128     2.1054     0.0197 C.2     
   8 O8            -2.3535     1.4779     0.0212 O.2     
   9 N9            -1.3383     3.4529     0.0271 N.am    
  10 C10           -2.6206     4.1612     0.0371 C.3     
  11 C11           -3.4820     3.8046     1.2612 C.3     
  12 C12           -4.8857     4.3818     1.0684 C.3     
  13 C13           -4.8116     5.8900     0.8223 C.3     
  14 C14           -3.8930     6.1568    -0.3830 C.3     
  15 C15           -4.2830     5.1538    -1.4932 C.3     
  16 C16           -3.4681     3.8759    -1.2242 C.3     
  17 C17           -2.4684     5.7053     0.0341 C.3     
  18 C18           -5.1795     9.4876    -1.6953 C.ar    
  19 C19           -6.3937    10.0298    -2.1103 C.ar    
  20 C20           -6.4330    11.3501    -2.5299 C.ar    
  21 C21           -5.2560    12.0824    -2.5198 C.ar    
  22 C22           -4.0839    11.4784    -2.0940 C.ar    
  23 N23           -4.0749    10.2233    -1.7010 N.ar    
  24 C24           -5.1218     8.0794    -1.2380 C.2     
  25 O25           -6.1310     7.4027    -1.2260 O.2     
  26 N26           -3.9500     7.5491    -0.8352 N.am    
  27 C27           -2.8019    12.2704    -2.0812 C.3     
  28 F28            3.5927    -0.5013    -0.0346 F       
  29 H29           -0.9214    -0.5641     0.0082 H       
  30 H30            1.2671    -1.7398    -0.0191 H       
  31 H31            3.1888     2.0815    -0.0170 H       
  32 H32           -0.5076     3.9537     0.0259 H       
  33 H33           -3.5438     2.7209     1.3605 H       
  34 H34           -3.0332     4.2294     2.1591 H       
  35 H35           -5.3596     3.8997     0.2134 H       
  36 H36           -5.4800     4.1910     1.9619 H       
  37 H37           -5.8096     6.2747     0.6124 H       
  38 H38           -4.4071     6.3842     1.7056 H       
  39 H39           -5.3498     4.9355    -1.4430 H       
  40 H40           -4.0291     5.5610    -2.4720 H       
  41 H41           -2.8176     3.6610    -2.0720 H       
  42 H42           -4.1382     3.0355    -1.0431 H       
  43 H43           -2.2165     6.0751     1.0280 H       
  44 H44           -1.7272     6.0236    -0.6991 H       
  45 H45           -7.2917     9.4298    -2.1055 H       
  46 H46           -7.3594    11.7981    -2.8577 H       
  47 H47           -5.2526    13.1135    -2.8410 H       
  48 H48           -3.1445     8.0893    -0.8447 H       
  49 H49           -2.6879    12.7616    -1.1149 H       
  50 H50           -1.9590    11.6001    -2.2497 H       
  51 H51           -2.8314    13.0223    -2.8698 H       
@<TRIPOS>BOND
   1    1    2 ar
   2    1    6 ar
   3    1    7 1
   4    2    3 ar
   5    2   29 1
   6    3    4 ar
   7    3   30 1
   8    4    5 ar
   9    4   28 1
  10    5    6 ar
  11    5   31 1
  12    7    8 2
  13    7    9 am
  14    9   10 1
  15    9   32 1
  16   10   11 1
  17   10   16 1
  18   10   17 1
  19   11   12 1
  20   11   33 1
  21   11   34 1
  22   12   13 1
  23   12   35 1
  24   12   36 1
  25   13   14 1
  26   13   37 1
  27   13   38 1
  28   14   15 1
  29   14   17 1
  30   14   26 1
  31   15   16 1
  32   15   39 1
  33   15   40 1
  34   16   41 1
  35   16   42 1
  36   17   43 1
  37   17   44 1
  38   18   19 ar
  39   18   23 ar
  40   18   24 1
  41   19   20 ar
  42   19   45 1
  43   20   21 ar
  44   20   46 1
  45   21   22 ar
  46   21   47 1
  47   22   23 ar
  48   22   27 1
  49   24   25 2
  50   24   26 am
  51   26   48 1
  52   27   49 1
  53   27   50 1
  54   27   51 1

#	End of record

