#	Name: ASD06170033
#	Creating user name:	WinNT
#	Creation time:	15. 06. 2019 21:05

#	Modifying user name:	WinNT
#	Modification time:	15. 06. 2019 21:05

#	Program:	/corina/corina34_cracker 3.40 0067  02.08.2006

@<TRIPOS>MOLECULE
ASD06170033
  63   67    0    0    0
SMALL
NO_CHARGES


@<TRIPOS>ATOM
   1 N1             0.2054    -1.9789     0.1393 N.pl3   
   2 N2            -0.0120    -0.6708    -0.3035 N.am    
   3 C3             1.1798    -0.1166    -0.6082 C.2     
   4 C4             2.1993    -1.1429    -0.3381 C.2     
   5 C5             1.5227    -2.2575     0.1178 C.2     
   6 C6             3.6497    -1.0086    -0.5179 C.2     
   7 O7             4.3844    -1.9423    -0.2551 O.2     
   8 N8             4.1679     0.1490    -0.9740 N.am    
   9 O9             1.3736     1.0101    -1.0250 O.2     
  10 C10            2.1526    -3.5652     0.5229 C.3     
  11 C11           -0.8437    -2.9067     0.5690 C.3     
  12 C12            5.5512     0.3179    -1.0346 C.ar    
  13 C13            6.0780     1.5549    -1.3889 C.ar    
  14 C14            7.4510     1.7115    -1.4460 C.ar    
  15 C15            8.2568     0.6162    -1.1441 C.ar    
  16 C16            7.6613    -0.5864    -0.7989 C.ar    
  17 N17            6.3478    -0.6994    -0.7491 N.ar    
  18 O18            9.6113     0.7257    -1.1882 O.3     
  19 N19           11.5000     2.4444     2.0506 N.ar    
  20 C20           10.1903     2.3689     2.0139 C.ar    
  21 C21            9.5193     1.7982     0.9398 C.ar    
  22 C22           10.2391     1.2897    -0.1270 C.ar    
  23 C23           11.6486     1.3758    -0.0764 C.ar    
  24 C24           12.4458     0.8833    -1.1204 C.ar    
  25 C25           13.8046     0.9843    -1.0383 C.ar    
  26 C26           14.4113     1.5754     0.0790 C.ar    
  27 C27           13.6592     2.0623     1.1090 C.ar    
  28 C28           12.2585     1.9734     1.0535 C.ar    
  29 O29           15.7660     1.6644     0.1376 O.3     
  30 C30           16.3262     2.2768     1.3009 C.3     
  31 O31           14.5774     0.5065    -2.0499 O.3     
  32 C32           13.8998    -0.0848    -3.1604 C.3     
  33 C33           -1.2566    -0.0420    -0.4129 C.ar    
  34 C34           -2.3092    -0.6884    -1.0479 C.ar    
  35 C35           -3.5377    -0.0642    -1.1542 C.ar    
  36 C36           -3.7187     1.2037    -0.6290 C.ar    
  37 C37           -2.6721     1.8489     0.0030 C.ar    
  38 C38           -1.4438     1.2274     0.1182 C.ar    
  39 Cl39          -4.8545    -0.8706    -1.9475 Cl      
  40 H40            3.5789     0.8646    -1.2601 H       
  41 H41            2.2165    -4.2219    -0.3447 H       
  42 H42            3.1534    -3.3809     0.9135 H       
  43 H43            1.5436    -4.0388     1.2930 H       
  44 H44           -1.2564    -3.4168    -0.3014 H       
  45 H45           -0.4206    -3.6415     1.2540 H       
  46 H46           -1.6346    -2.3522     1.0741 H       
  47 H47            5.4232     2.3830    -1.6170 H       
  48 H48            7.8881     2.6607    -1.7185 H       
  49 H49            8.2798    -1.4400    -0.5636 H       
  50 H50            9.6183     2.7622     2.8413 H       
  51 H51            8.4404     1.7498     0.9383 H       
  52 H52           11.9868     0.4261    -1.9845 H       
  53 H53           14.1398     2.5149     1.9638 H       
  54 H54           15.9616     3.3006     1.3839 H       
  55 H55           16.0312     1.7131     2.1860 H       
  56 H56           17.4132     2.2836     1.2201 H       
  57 H57           13.2408     0.6528    -3.6185 H       
  58 H58           14.6313    -0.4237    -3.8939 H       
  59 H59           13.3103    -0.9344    -2.8158 H       
  60 H60           -2.1678    -1.6773    -1.4583 H       
  61 H61           -4.6794     1.6899    -0.7134 H       
  62 H62           -2.8163     2.8384     0.4111 H       
  63 H63           -0.6284     1.7303     0.6166 H       
@<TRIPOS>BOND
   1    1    2 1
   2    1    5 1
   3    1   11 1
   4    2    3 am
   5    2   33 1
   6    3    4 1
   7    3    9 2
   8    4    5 2
   9    4    6 1
  10    5   10 1
  11    6    7 2
  12    6    8 am
  13    8   12 1
  14    8   40 1
  15   10   41 1
  16   10   42 1
  17   10   43 1
  18   11   44 1
  19   11   45 1
  20   11   46 1
  21   12   13 ar
  22   12   17 ar
  23   13   14 ar
  24   13   47 1
  25   14   15 ar
  26   14   48 1
  27   15   16 ar
  28   15   18 1
  29   16   17 ar
  30   16   49 1
  31   18   22 1
  32   19   20 ar
  33   19   28 ar
  34   20   21 ar
  35   20   50 1
  36   21   22 ar
  37   21   51 1
  38   22   23 ar
  39   23   24 ar
  40   23   28 ar
  41   24   25 ar
  42   24   52 1
  43   25   26 ar
  44   25   31 1
  45   26   27 ar
  46   26   29 1
  47   27   28 ar
  48   27   53 1
  49   29   30 1
  50   30   54 1
  51   30   55 1
  52   30   56 1
  53   31   32 1
  54   32   57 1
  55   32   58 1
  56   32   59 1
  57   33   34 ar
  58   33   38 ar
  59   34   35 ar
  60   34   60 1
  61   35   36 ar
  62   35   39 1
  63   36   37 ar
  64   36   61 1
  65   37   38 ar
  66   37   62 1
  67   38   63 1

#	End of record

