#	Name: ASD08070294
#	Creating user name:	WinNT
#	Creation time:	15. 06. 2019 21:14

#	Modifying user name:	WinNT
#	Modification time:	15. 06. 2019 21:14

#	Program:	/corina/corina34_cracker 3.40 0067  02.08.2006

@<TRIPOS>MOLECULE
ASD08070294
  44   46    0    0    0
SMALL
NO_CHARGES


@<TRIPOS>ATOM
   1 C1            -0.0182     1.4903     0.0102 C.2     
   2 C2             0.0021    -0.0041     0.0020 C.2     
   3 O3             1.0244     2.1113     0.0036 O.2     
   4 N4            -1.1944     2.1482     0.0194 N.am    
   5 O5            -1.0405    -0.6251     0.0086 O.2     
   6 N6             1.1783    -0.6620    -0.0127 N.am    
   7 C7             1.1981    -2.1268    -0.0208 C.3     
   8 C8             2.6473    -2.6171    -0.0373 C.3     
   9 C9             2.6678    -4.1240    -0.0456 C.ar    
  10 C10            3.3568    -4.7924    -1.0401 C.ar    
  11 C11            3.3697    -6.1786    -1.0384 C.ar    
  12 C12            2.6860    -6.8437    -0.0318 C.ar    
  13 C13            2.0194    -6.1080     0.9292 C.ar    
  14 N14            2.0327    -4.7895     0.8991 N.ar    
  15 C15           -1.2143     3.6131     0.0274 C.3     
  16 O16           -5.3955     4.5925     2.3833 O.3     
  17 C17           -4.6747     4.5631     1.2291 C.ar    
  18 C18           -3.3591     4.1140     1.2233 C.ar    
  19 O19           -2.7632     3.6886     2.3707 O.3     
  20 C20           -3.3884     4.0719     3.6005 C.3     
  21 C21           -4.8957     3.8116     3.4743 C.3     
  22 C22           -2.6418     4.0960     0.0368 C.ar    
  23 C23           -3.2346     4.5212    -1.1374 C.ar    
  24 C24           -4.5434     4.9655    -1.1320 C.ar    
  25 C25           -5.2636     4.9874     0.0477 C.ar    
  26 H26           -2.0278     1.6519     0.0206 H       
  27 H27            2.0116    -0.1656    -0.0180 H       
  28 H28            0.6978    -2.5019     0.8720 H       
  29 H29            0.6808    -2.4923    -0.9079 H       
  30 H30            3.1477    -2.2421    -0.9301 H       
  31 H31            3.1647    -2.2516     0.8498 H       
  32 H32            3.8782    -4.2416    -1.8091 H       
  33 H33            3.8993    -6.7275    -1.8030 H       
  34 H34            2.6745    -7.9232     0.0004 H       
  35 H35            1.4846    -6.6184     1.7165 H       
  36 H36           -0.7012     3.9785     0.9170 H       
  37 H37           -0.7097     3.9882    -0.8629 H       
  38 H38           -2.9806     3.4803     4.4202 H       
  39 H39           -3.2124     5.1311     3.7878 H       
  40 H40           -5.3978     4.1045     4.3963 H       
  41 H41           -5.0711     2.7535     3.2797 H       
  42 H42           -2.6741     4.5064    -2.0604 H       
  43 H43           -5.0040     5.2964    -2.0511 H       
  44 H44           -6.2861     5.3350     0.0491 H       
@<TRIPOS>BOND
   1    1    2 1
   2    1    3 2
   3    1    4 am
   4    2    5 2
   5    2    6 am
   6    4   15 1
   7    4   26 1
   8    6    7 1
   9    6   27 1
  10    7    8 1
  11    7   28 1
  12    7   29 1
  13    8    9 1
  14    8   30 1
  15    8   31 1
  16    9   10 ar
  17    9   14 ar
  18   10   11 ar
  19   10   32 1
  20   11   12 ar
  21   11   33 1
  22   12   13 ar
  23   12   34 1
  24   13   14 ar
  25   13   35 1
  26   15   22 1
  27   15   36 1
  28   15   37 1
  29   16   17 1
  30   16   21 1
  31   17   18 ar
  32   17   25 ar
  33   18   19 1
  34   18   22 ar
  35   19   20 1
  36   20   21 1
  37   20   38 1
  38   20   39 1
  39   21   40 1
  40   21   41 1
  41   22   23 ar
  42   23   24 ar
  43   23   42 1
  44   24   25 ar
  45   24   43 1
  46   25   44 1

#	End of record

