#	Name: ASD00310008
#	Creating user name:	WinNT
#	Creation time:	15. 06. 2019 18:33

#	Modifying user name:	WinNT
#	Modification time:	15. 06. 2019 18:33

#	Program:	/corina/corina34_cracker 3.40 0067  02.08.2006

@<TRIPOS>MOLECULE
ASD00310008
  33   34    0    0    0
SMALL
NO_CHARGES


@<TRIPOS>ATOM
   1 C1            -0.0155     1.2949     0.0092 C.2     
   2 N2             0.0021    -0.0041     0.0020 N.2     
   3 C3             1.2931    -0.4346    -0.0126 C.2     
   4 C4             2.1024     0.6924    -0.0143 C.2     
   5 N5             1.2639     1.7679    -0.0005 N.pl3   
   6 C6             1.7442    -1.8282    -0.0244 C.2     
   7 O7             2.9346    -2.0825    -0.0367 O.2     
   8 N8             0.8413    -2.8288    -0.0217 N.am    
   9 O9             1.6515     3.1298     0.0024 O.3     
  10 C10            0.5551     4.0461     0.0176 C.3     
  11 C11            1.0642     5.5044     0.1462 C.3     
  12 O12            1.2520     5.8599     1.5175 O.3     
  13 C13           -0.1000     6.3107    -0.4791 C.3     
  14 O14           -0.9600     6.8210     0.5417 O.3     
  15 C15           -0.8474     5.2818    -1.3494 C.3     
  16 O16           -0.1306     4.0396    -1.2530 O.3     
  17 C17           -0.8762     5.7543    -2.8044 C.3     
  18 O18           -1.6692     4.8548    -3.5817 O.3     
  19 N19            3.4823     0.7196    -0.0273 N.pl3   
  20 H20           -0.9059     1.9061     0.0168 H       
  21 H21           -0.1072    -2.6261    -0.0119 H       
  22 H22            1.1400    -3.7516    -0.0295 H       
  23 H23           -0.1325     3.8067     0.8287 H       
  24 H24            1.9847     5.6464    -0.4201 H       
  25 H25            1.9093     5.3199     1.9774 H       
  26 H26            0.2860     7.1243    -1.0933 H       
  27 H27           -0.5250     7.4295     1.1546 H       
  28 H28           -1.8645     5.1525    -0.9794 H       
  29 H29           -1.3075     6.7541    -2.8533 H       
  30 H30            0.1396     5.7770    -3.1992 H       
  31 H31           -1.7318     5.0932    -4.5167 H       
  32 H32            3.9837    -0.1107    -0.0369 H       
  33 H33            3.9506     1.5690    -0.0269 H       
@<TRIPOS>BOND
   1    1    2 2
   2    1    5 1
   3    1   20 1
   4    2    3 1
   5    3    4 2
   6    3    6 1
   7    4    5 1
   8    4   19 1
   9    5    9 1
  10    6    7 2
  11    6    8 am
  12    8   21 1
  13    8   22 1
  14    9   10 1
  15   10   11 1
  16   10   16 1
  17   10   23 1
  18   11   12 1
  19   11   13 1
  20   11   24 1
  21   12   25 1
  22   13   14 1
  23   13   15 1
  24   13   26 1
  25   14   27 1
  26   15   16 1
  27   15   17 1
  28   15   28 1
  29   17   18 1
  30   17   29 1
  31   17   30 1
  32   18   31 1
  33   19   32 1
  34   19   33 1

#	End of record

