#	Name: ASD02560188
#	Creating user name:	WinNT
#	Creation time:	15. 06. 2019 20:24

#	Modifying user name:	WinNT
#	Modification time:	15. 06. 2019 20:24

#	Program:	/corina/corina34_cracker 3.40 0067  02.08.2006

@<TRIPOS>MOLECULE
ASD02560188
  56   59    0    0    0
SMALL
NO_CHARGES


@<TRIPOS>ATOM
   1 N1            -0.2483     1.2915     0.0854 N.2     
   2 N2            -0.1884     0.0580     0.0903 N.2     
   3 C3             1.0830     1.8875    -0.0858 C.3     
   4 N4             2.0321     0.7847     0.2100 N.3     
   5 C5             1.1946    -0.4073    -0.0766 C.3     
   6 S6             1.5610    -1.7353     1.1035 S.3     
   7 C7             1.1580    -0.9819     2.7037 C.3     
   8 C8             1.4138    -1.9771     3.8061 C.2     
   9 O9             1.8273    -3.0855     3.5386 O.2     
  10 N10            1.1831    -1.6354     5.0893 N.am    
  11 C11            3.1349     0.8349    -0.6378 C.ar    
  12 C12            1.3100    -2.5927     6.1019 C.ar    
  13 C13            1.5761    -2.1954     7.4059 C.ar    
  14 C14            1.7008    -3.1427     8.4029 C.ar    
  15 C15            1.5609    -4.4858     8.1041 C.ar    
  16 C16            1.2964    -4.8846     6.8070 C.ar    
  17 C17            1.1644    -3.9416     5.8062 C.ar    
  18 S18            1.7208    -5.6913     9.3792 S.o2    
  19 O19            2.0804    -6.9077     8.7386 O.2     
  20 O20            2.5026    -5.0913    10.4029 O.2     
  21 C21            4.1240     1.8274    -0.4629 C.ar    
  22 C22            3.2753    -0.0882    -1.6539 C.ar    
  23 C23            4.3729    -0.0463    -2.5057 C.ar    
  24 C24            5.3392     0.9060    -2.3612 C.ar    
  25 C25            5.2358     1.8562    -1.3394 C.ar    
  26 N26            0.2128    -5.9288    10.0210 N.am    
  27 C27            4.0251     2.7825     0.5596 C.ar    
  28 C28            6.2520     2.8913    -1.1550 C.ar    
  29 C29            6.0900     3.8055    -0.1213 C.ar    
  30 C30            4.9861     3.7347     0.7167 C.ar    
  31 C31            1.2666     2.3773    -1.5236 C.3     
  32 F32            0.2067     3.2235    -1.8669 F       
  33 F33            2.4740     3.0763    -1.6275 F       
  34 C34            1.7292    -0.7322     7.7322 C.3     
  35 C35            7.3901     2.9612    -2.0212 C.1     
  36 N36            8.2931     3.0166    -2.7083 N.1     
  37 H37            1.2244     2.7087     0.6169 H       
  38 H38            1.3590    -0.7501    -1.0982 H       
  39 H39            1.7810    -0.1009     2.8577 H       
  40 H40            0.1077    -0.6905     2.7138 H       
  41 H41            0.9291    -0.7258     5.3108 H       
  42 H42            1.9081    -2.8344     9.4170 H       
  43 H43            1.1881    -5.9342     6.5768 H       
  44 H44            0.9575    -4.2537     4.7933 H       
  45 H45            2.5238    -0.8521    -1.7886 H       
  46 H46            4.4624    -0.7791    -3.2940 H       
  47 H47            6.1854     0.9236    -3.0322 H       
  48 H48           -0.5457    -5.4341     9.6735 H       
  49 H49            0.0880    -6.5628    10.7445 H       
  50 H50            3.1779     2.7628     1.2291 H       
  51 H51            6.8295     4.5776     0.0314 H       
  52 H52            4.8841     4.4573     1.5129 H       
  53 H53            1.2824     1.5223    -2.1995 H       
  54 H54            0.7575    -0.3154     7.9973 H       
  55 H55            2.4152    -0.6169     8.5714 H       
  56 H56            2.1257    -0.2058     6.8639 H       
@<TRIPOS>BOND
   1    1    2 2
   2    1    3 1
   3    2    5 1
   4    3    4 1
   5    3   31 1
   6    3   37 1
   7    4    5 1
   8    4   11 1
   9    5    6 1
  10    5   38 1
  11    6    7 1
  12    7    8 1
  13    7   39 1
  14    7   40 1
  15    8    9 2
  16    8   10 am
  17   10   12 1
  18   10   41 1
  19   11   21 ar
  20   11   22 ar
  21   12   13 ar
  22   12   17 ar
  23   13   14 ar
  24   13   34 1
  25   14   15 ar
  26   14   42 1
  27   15   16 ar
  28   15   18 1
  29   16   17 ar
  30   16   43 1
  31   17   44 1
  32   18   19 2
  33   18   20 2
  34   18   26 am
  35   21   25 ar
  36   21   27 ar
  37   22   23 ar
  38   22   45 1
  39   23   24 ar
  40   23   46 1
  41   24   25 ar
  42   24   47 1
  43   25   28 ar
  44   26   48 1
  45   26   49 1
  46   27   30 ar
  47   27   50 1
  48   28   29 ar
  49   28   35 1
  50   29   30 ar
  51   29   51 1
  52   30   52 1
  53   31   32 1
  54   31   33 1
  55   31   53 1
  56   34   54 1
  57   34   55 1
  58   34   56 1
  59   35   36 3

#	End of record

