#	Name: ASD01180268
#	Creating user name:	WinNT
#	Creation time:	15. 06. 2019 19:07

#	Modifying user name:	WinNT
#	Modification time:	15. 06. 2019 19:07

#	Program:	/corina/corina34_cracker 3.40 0067  02.08.2006

@<TRIPOS>MOLECULE
ASD01180268
  39   39    0    0    0
SMALL
NO_CHARGES


@<TRIPOS>ATOM
   1 C1            -0.0184     1.5028     0.0103 C.2     
   2 C2             0.0021    -0.0041     0.0020 C.3     
   3 C3             1.4513    -0.4944    -0.0145 C.3     
   4 O4             1.0197     2.1211     0.0037 O.2     
   5 O5            -1.1898     2.1580     0.0194 O.3     
   6 C6             2.6473    -2.6171    -0.0373 C.2     
   7 C7             2.6674    -4.0977    -0.0454 C.ar    
   8 C8             3.8858    -4.7784    -0.0607 C.ar    
   9 C9             3.9058    -6.1559    -0.0678 C.ar    
  10 C10            2.7050    -6.8720    -0.0598 C.ar    
  11 C11            1.4853    -6.1889    -0.0444 C.ar    
  12 C12            1.4680    -4.8113    -0.0320 C.ar    
  13 O13            3.6914    -1.9953    -0.0439 O.2     
  14 N14            1.4712    -1.9592    -0.0225 N.am    
  15 C15            2.7250    -8.3457    -0.0679 C.2     
  16 O16            3.7829    -8.9375    -0.0815 O.2     
  17 C17            1.4303    -9.1169    -0.0591 C.3     
  18 C18            1.7303   -10.6172    -0.0702 C.3     
  19 C19            0.4158   -11.4001    -0.0613 C.3     
  20 C20           -1.1335     3.6089     0.0270 C.3     
  21 H21           -0.4983    -0.3791     0.8948 H       
  22 H22           -0.5153    -0.3696    -0.8850 H       
  23 H23            1.9516    -0.1193    -0.9073 H       
  24 H24            1.9686    -0.1289     0.8726 H       
  25 H25            4.8132    -4.2250    -0.0673 H       
  26 H26            4.8487    -6.6824    -0.0800 H       
  27 H27            0.5570    -6.7409    -0.0386 H       
  28 H28            0.5260    -4.2834    -0.0156 H       
  29 H29            0.6378    -2.4556    -0.0172 H       
  30 H30            0.8641    -8.8662     0.8379 H       
  31 H31            0.8464    -8.8566    -0.9420 H       
  32 H32            2.2965   -10.8679    -0.9672 H       
  33 H33            2.3142   -10.8775     0.8127 H       
  34 H34           -0.1504   -11.1494     0.8357 H       
  35 H35           -0.1681   -11.1399    -0.9442 H       
  36 H36            0.6295   -12.4690    -0.0692 H       
  37 H37           -0.6017     3.9472     0.9164 H       
  38 H38           -0.6102     3.9569    -0.8636 H       
  39 H39           -2.1463     4.0118     0.0340 H       
@<TRIPOS>BOND
   1    1    2 1
   2    1    4 2
   3    1    5 1
   4    2    3 1
   5    2   21 1
   6    2   22 1
   7    3   14 1
   8    3   23 1
   9    3   24 1
  10    5   20 1
  11    6    7 1
  12    6   13 2
  13    6   14 am
  14    7    8 ar
  15    7   12 ar
  16    8    9 ar
  17    8   25 1
  18    9   10 ar
  19    9   26 1
  20   10   11 ar
  21   10   15 1
  22   11   12 ar
  23   11   27 1
  24   12   28 1
  25   14   29 1
  26   15   16 2
  27   15   17 1
  28   17   18 1
  29   17   30 1
  30   17   31 1
  31   18   19 1
  32   18   32 1
  33   18   33 1
  34   19   34 1
  35   19   35 1
  36   19   36 1
  37   20   37 1
  38   20   38 1
  39   20   39 1

#	End of record

