#	Name: ASD08070214
#	Creating user name:	WinNT
#	Creation time:	15. 06. 2019 21:14

#	Modifying user name:	WinNT
#	Modification time:	15. 06. 2019 21:14

#	Program:	/corina/corina34_cracker 3.40 0067  02.08.2006

@<TRIPOS>MOLECULE
ASD08070214
  42   43    0    0    0
SMALL
NO_CHARGES


@<TRIPOS>ATOM
   1 C1            -0.0550     1.4964    -0.2344 C.ar    
   2 C2            -0.0748     0.0425    -0.5024 C.2     
   3 O3            -1.1143    -0.5797    -0.4029 O.2     
   4 N4             1.0596    -0.5930    -0.8570 N.am    
   5 C5             1.0399    -2.0336    -1.1225 C.3     
   6 C6             2.1919    -2.3947    -2.0624 C.3     
   7 C7             2.1713    -3.8993    -2.3397 C.3     
   8 C8             1.1048     2.2362    -0.4701 C.ar    
   9 C9             1.1199     3.5931    -0.2189 C.ar    
  10 C10           -0.0109     4.2232     0.2665 C.ar    
  11 C11           -1.1693     3.4955     0.5041 C.ar    
  12 C12            1.1974    -2.7970     0.1941 C.3     
  13 C13            1.1768    -4.3015    -0.0832 C.3     
  14 C14            2.3288    -4.6627    -1.0231 C.3     
  15 C15           -1.1973     2.1348     0.2495 C.ar    
  16 C16            2.3082    -6.1672    -1.3004 C.3     
  17 O17           -2.2780     4.1202     0.9813 O.3     
  18 C18           -2.1801     5.5265     1.2155 C.3     
  19 C19           -2.4539     1.3435     0.5064 C.3     
  20 H20            1.8891    -0.0965    -0.9364 H       
  21 H21            0.0924    -2.3043    -1.5883 H       
  22 H22            2.0797    -1.8509    -3.0003 H       
  23 H23            3.1394    -2.1241    -1.5965 H       
  24 H24            1.2238    -4.1699    -2.8055 H       
  25 H25            2.9920    -4.1566    -3.0093 H       
  26 H26            1.9901     1.7469    -0.8486 H       
  27 H27            2.0179     4.1645    -0.4017 H       
  28 H28            0.0070     5.2852     0.4620 H       
  29 H29            2.1449    -2.5263     0.6599 H       
  30 H30            0.3767    -2.5397     0.8637 H       
  31 H31            1.2890    -4.8454     0.8547 H       
  32 H32            0.2293    -4.5722    -0.5491 H       
  33 H33            3.2763    -4.3920    -0.5573 H       
  34 H34            1.3607    -6.4379    -1.7663 H       
  35 H35            3.1289    -6.4245    -1.9700 H       
  36 H36            2.4204    -6.7111    -0.3625 H       
  37 H37           -1.3969     5.7190     1.9488 H       
  38 H38           -1.9367     6.0342     0.2822 H       
  39 H39           -3.1319     5.8989     1.5943 H       
  40 H40           -3.0123     1.2366    -0.4236 H       
  41 H41           -2.1904     0.3569     0.8875 H       
  42 H42           -3.0677     1.8648     1.2409 H       
@<TRIPOS>BOND
   1    1    2 1
   2    1    8 ar
   3    1   15 ar
   4    2    3 2
   5    2    4 am
   6    4    5 1
   7    4   20 1
   8    5    6 1
   9    5   12 1
  10    5   21 1
  11    6    7 1
  12    6   22 1
  13    6   23 1
  14    7   14 1
  15    7   24 1
  16    7   25 1
  17    8    9 ar
  18    8   26 1
  19    9   10 ar
  20    9   27 1
  21   10   11 ar
  22   10   28 1
  23   11   15 ar
  24   11   17 1
  25   12   13 1
  26   12   29 1
  27   12   30 1
  28   13   14 1
  29   13   31 1
  30   13   32 1
  31   14   16 1
  32   14   33 1
  33   15   19 1
  34   16   34 1
  35   16   35 1
  36   16   36 1
  37   17   18 1
  38   18   37 1
  39   18   38 1
  40   18   39 1
  41   19   40 1
  42   19   41 1
  43   19   42 1

#	End of record

