#	Name: ASD01190121
#	Creating user name:	WinNT
#	Creation time:	15. 06. 2019 19:07

#	Modifying user name:	WinNT
#	Modification time:	15. 06. 2019 19:07

#	Program:	/corina/corina34_cracker 3.40 0067  02.08.2006

@<TRIPOS>MOLECULE
ASD01190121
  49   53    0    0    0
SMALL
NO_CHARGES


@<TRIPOS>ATOM
   1 C1            -0.1386     1.3275     0.0646 C.3     
   2 C2            -0.2479    -0.1985     0.0502 C.3     
   3 N3             3.5285     1.6231     0.2132 N.pl3   
   4 C4             2.3667     0.9002     0.2082 C.2     
   5 C5             1.3140     1.7267     0.1046 C.2     
   6 C6             1.8451     3.0903     0.0378 C.ar    
   7 C7             1.2626     4.3544    -0.0735 C.ar    
   8 C8             2.0561     5.4660    -0.1114 C.ar    
   9 C9             3.4376     5.3490    -0.0401 C.ar    
  10 C10            4.0332     4.1117     0.0695 C.ar    
  11 C11            3.2445     2.9664     0.1103 C.ar    
  12 C12            4.8739     1.0530     0.3186 C.3     
  13 C13           -2.4925     3.1544    -2.2580 C.2     
  14 C14           -1.9099     2.6391    -1.0839 C.2     
  15 C15           -0.7797     1.8887    -1.1784 C.2     
  16 C16           -0.2107     1.6385    -2.4411 C.2     
  17 C17           -0.7764     2.1363    -3.5585 C.2     
  18 N18           -1.9140     2.8939    -3.4842 N.pl3   
  19 C19           -2.6865     3.5122    -4.4234 C.2     
  20 N20           -3.6884     4.1230    -3.8202 N.2     
  21 C21           -3.6124     3.9272    -2.5071 C.2     
  22 C22           -2.4407     3.5003    -5.8795 C.ar    
  23 C23           -1.1548     3.2654    -6.3715 C.ar    
  24 C24           -0.9313     3.2555    -7.7322 C.ar    
  25 C25           -1.9795     3.4785    -8.6110 C.ar    
  26 C26           -3.2576     3.7121    -8.1286 C.ar    
  27 C27           -3.4943     3.7182    -6.7701 C.ar    
  28 F28           -1.7544     3.4685    -9.9431 F       
  29 F29            0.3473    -0.7195     1.2041 F       
  30 F30           -1.5964    -0.5691     0.0131 F       
  31 F31            0.4055    -0.7023    -1.0796 F       
  32 O32           -0.8059     1.8420     1.2186 O.3     
  33 H33            2.3057    -0.1758     0.2770 H       
  34 H34            0.1886     4.4531    -0.1298 H       
  35 H35            1.6050     6.4434    -0.1978 H       
  36 H36            4.0516     6.2369    -0.0713 H       
  37 H37            5.1088     4.0311     0.1239 H       
  38 H38            5.2573     0.8396    -0.6792 H       
  39 H39            5.5323     1.7652     0.8161 H       
  40 H40            4.8333     0.1302     0.8973 H       
  41 H41           -2.3550     2.8379    -0.1202 H       
  42 H42            0.6870     1.0427    -2.5152 H       
  43 H43           -0.3283     1.9359    -4.5205 H       
  44 H44           -4.3017     4.3054    -1.7667 H       
  45 H45           -0.3370     3.0922    -5.6876 H       
  46 H46            0.0626     3.0740    -8.1138 H       
  47 H47           -4.0705     3.8856    -8.8181 H       
  48 H48           -4.4915     3.8959    -6.3954 H       
  49 H49           -0.7768     2.8057     1.2928 H       
@<TRIPOS>BOND
   1    1    2 1
   2    1    5 1
   3    1   15 1
   4    1   32 1
   5    2   29 1
   6    2   30 1
   7    2   31 1
   8    3    4 1
   9    3   11 1
  10    3   12 1
  11    4    5 2
  12    4   33 1
  13    5    6 1
  14    6    7 ar
  15    6   11 ar
  16    7    8 ar
  17    7   34 1
  18    8    9 ar
  19    8   35 1
  20    9   10 ar
  21    9   36 1
  22   10   11 ar
  23   10   37 1
  24   12   38 1
  25   12   39 1
  26   12   40 1
  27   13   14 1
  28   13   18 1
  29   13   21 2
  30   14   15 2
  31   14   41 1
  32   15   16 1
  33   16   17 2
  34   16   42 1
  35   17   18 1
  36   17   43 1
  37   18   19 1
  38   19   20 2
  39   19   22 1
  40   20   21 1
  41   21   44 1
  42   22   23 ar
  43   22   27 ar
  44   23   24 ar
  45   23   45 1
  46   24   25 ar
  47   24   46 1
  48   25   26 ar
  49   25   28 1
  50   26   27 ar
  51   26   47 1
  52   27   48 1
  53   32   49 1

#	End of record

