#	Name: ASD00841137
#	Creating user name:	WinNT
#	Creation time:	15. 06. 2019 18:41

#	Modifying user name:	WinNT
#	Modification time:	15. 06. 2019 18:41

#	Program:	/corina/corina34_cracker 3.40 0067  02.08.2006

@<TRIPOS>MOLECULE
ASD00841137
  93   98    0    0    0
SMALL
NO_CHARGES


@<TRIPOS>ATOM
   1 N1            -0.0159     1.3183     0.0093 N.ar    
   2 C2             0.0021    -0.0041     0.0020 C.ar    
   3 C3             1.2069    -0.6955    -0.0132 C.ar    
   4 C4             2.3925     0.0180    -0.0207 C.ar    
   5 C5             2.3308     1.4049    -0.0127 C.ar    
   6 C6             1.0980     2.0259     0.0025 C.ar    
   7 C7             1.2224    -2.2024    -0.0209 C.3     
   8 C8             0.4764    -2.7346    -1.2259 C.2     
   9 O9             2.5879    -2.6961    -0.0089 O.3     
  10 C10            3.3819    -2.3225    -1.0300 C.2     
  11 N11            4.6605    -2.7459    -1.0791 N.am    
  12 O12            2.9459    -1.6036    -1.9072 O.2     
  13 C13            5.5392    -2.3467    -2.1869 C.3     
  14 C14            6.1437    -3.6063    -2.8153 C.3     
  15 C15            6.8374    -4.4311    -1.7286 C.3     
  16 C16            5.8105    -4.8604    -0.6782 C.3     
  17 C17            5.2039    -3.6105    -0.0227 C.3     
  18 C18            7.4721    -5.6727    -2.3583 C.3     
  19 C19            8.5010    -5.2447    -3.4084 C.3     
  20 C20            9.1757    -6.4886    -3.9910 C.3     
  21 N21            9.8325    -7.2405    -2.9141 N.3     
  22 C22            8.8575    -7.7026    -1.9180 C.3     
  23 C23            8.1733    -6.4949    -1.2735 C.3     
  24 C24           10.6069    -8.3659    -3.4543 C.3     
  25 O25            0.7568    -2.5406    -2.3898 O.2     
  26 N26           -0.5539    -3.4626    -0.7644 N.am    
  27 C27            0.4487    -2.7464     1.1585 C.ar    
  28 C28           -0.6011    -3.4915     0.6265 C.ar    
  29 C29            0.6132    -2.6250     2.5150 C.ar    
  30 C30           -0.2835    -3.2566     3.3842 C.ar    
  31 C31           -1.3412    -4.0072     2.8566 C.ar    
  32 C32           -1.4949    -4.1227     1.4917 C.ar    
  33 F33           -2.2122    -4.6208     3.6873 F       
  34 C34           -1.0164    -5.8557    -2.0426 C.ar    
  35 C35            0.1620    -6.0205    -2.7555 C.ar    
  36 C36           -1.6940    -6.9611    -1.5653 C.ar    
  37 C37           -1.1982    -8.2306    -1.7972 C.ar    
  38 C38           -0.0235    -8.3975    -2.5075 C.ar    
  39 C39            0.6573    -7.2957    -2.9873 C.ar    
  40 H40            0.3618    -9.3903    -2.6874 H       
  41 O41            0.8301    -4.9348    -3.2264 O.3     
  42 C42            2.0366    -5.1799    -3.9519 C.3     
  43 C43           11.4701    -8.9701    -2.3450 C.3     
  44 C44           12.2767   -10.1422    -2.9076 C.3     
  45 S45           -1.6449    -4.2377    -1.7399 S.o2    
  46 O46           -2.8262    -4.4040    -0.9678 O.2     
  47 O47           -1.6212    -3.5580    -2.9876 O.2     
  48 O48           -1.1673    -0.6919     0.0099 O.3     
  49 C49           -3.5777    -0.8652     0.0330 C.3     
  50 C50           -2.3720     0.0766     0.0260 C.3     
  51 C51           -0.1204    -3.1366     4.8018 C.1     
  52 N52            0.0090    -3.0413     5.9263 N.1     
  53 H53            3.3442    -0.4925    -0.0322 H       
  54 H54            3.2375     1.9916    -0.0178 H       
  55 H55            1.0444     3.1046     0.0084 H       
  56 H56            4.9604    -1.8064    -2.9360 H       
  57 H57            6.3374    -1.7082    -1.8083 H       
  58 H58            5.3526    -4.2000    -3.2732 H       
  59 H59            6.8711    -3.3206    -3.5751 H       
  60 H60            7.6119    -3.8285    -1.2543 H       
  61 H61            5.0225    -5.4423    -1.1563 H       
  62 H62            6.3008    -5.4674     0.0830 H       
  63 H63            5.9762    -3.0775     0.5319 H       
  64 H64            4.4025    -3.9056     0.6546 H       
  65 H65            6.6983    -6.2770    -2.8317 H       
  66 H66            8.0004    -4.6952    -4.2056 H       
  67 H67            9.2527    -4.6074    -2.9428 H       
  68 H68            8.4254    -7.1188    -4.4686 H       
  69 H69            9.9190    -6.1867    -4.7288 H       
  70 H70            8.1087    -8.3270    -2.4053 H       
  71 H71            9.3698    -8.2824    -1.1502 H       
  72 H72            8.9198    -5.8773    -0.7743 H       
  73 H73            7.4386    -6.8386    -0.5454 H       
  74 H74            9.9253    -9.1248    -3.8384 H       
  75 H75           11.2481    -8.0115    -4.2614 H       
  76 H76            1.4328    -2.0439     2.9111 H       
  77 H77           -2.3125    -4.7030     1.0901 H       
  78 H78           -2.6116    -6.8333    -1.0102 H       
  79 H79           -1.7289    -9.0934    -1.4226 H       
  80 H80            1.5743    -7.4267    -3.5426 H       
  81 H81            1.8164    -5.7908    -4.8274 H       
  82 H82            2.4683    -4.2310    -4.2703 H       
  83 H83            2.7454    -5.7048    -3.3115 H       
  84 H84           12.1518    -8.2111    -1.9609 H       
  85 H85           10.8289    -9.3244    -1.5379 H       
  86 H86           12.9179    -9.7878    -3.7146 H       
  87 H87           12.8917   -10.5726    -2.1172 H       
  88 H88           11.5951   -10.9011    -3.2916 H       
  89 H89           -3.5566    -1.4891    -0.8606 H       
  90 H90           -3.5390    -1.4986     0.9192 H       
  91 H91           -4.4966    -0.2790     0.0452 H       
  92 H92           -2.3931     0.7004     0.9196 H       
  93 H93           -2.4108     0.7099    -0.8602 H       
@<TRIPOS>BOND
   1    1    2 ar
   2    1    6 ar
   3    2    3 ar
   4    2   48 1
   5    3    4 ar
   6    3    7 1
   7    4    5 ar
   8    4   53 1
   9    5    6 ar
  10    5   54 1
  11    6   55 1
  12    7    8 1
  13    7    9 1
  14    7   27 1
  15    8   25 2
  16    8   26 am
  17    9   10 1
  18   10   11 am
  19   10   12 2
  20   11   13 1
  21   11   17 1
  22   13   14 1
  23   13   56 1
  24   13   57 1
  25   14   15 1
  26   14   58 1
  27   14   59 1
  28   15   16 1
  29   15   18 1
  30   15   60 1
  31   16   17 1
  32   16   61 1
  33   16   62 1
  34   17   63 1
  35   17   64 1
  36   18   19 1
  37   18   23 1
  38   18   65 1
  39   19   20 1
  40   19   66 1
  41   19   67 1
  42   20   21 1
  43   20   68 1
  44   20   69 1
  45   21   22 1
  46   21   24 1
  47   22   23 1
  48   22   70 1
  49   22   71 1
  50   23   72 1
  51   23   73 1
  52   24   43 1
  53   24   74 1
  54   24   75 1
  55   26   45 am
  56   26   28 1
  57   27   28 ar
  58   27   29 ar
  59   28   32 ar
  60   29   30 ar
  61   29   76 1
  62   30   31 ar
  63   30   51 1
  64   31   32 ar
  65   31   33 1
  66   32   77 1
  67   34   35 ar
  68   34   36 ar
  69   34   45 1
  70   35   41 1
  71   35   39 ar
  72   36   37 ar
  73   36   78 1
  74   37   38 ar
  75   37   79 1
  76   38   39 ar
  77   38   40 1
  78   39   80 1
  79   41   42 1
  80   42   81 1
  81   42   82 1
  82   42   83 1
  83   43   44 1
  84   43   84 1
  85   43   85 1
  86   44   86 1
  87   44   87 1
  88   44   88 1
  89   45   46 2
  90   45   47 2
  91   48   50 1
  92   49   50 1
  93   49   89 1
  94   49   90 1
  95   49   91 1
  96   50   92 1
  97   50   93 1
  98   51   52 3

#	End of record

