#	Name: ASD01410577
#	Creating user name:	WinNT
#	Creation time:	15. 06. 2019 19:18

#	Modifying user name:	WinNT
#	Modification time:	15. 06. 2019 19:18

#	Program:	/corina/corina34_cracker 3.40 0067  02.08.2006

@<TRIPOS>MOLECULE
ASD01410577
  72   75    0    0    0
SMALL
NO_CHARGES


@<TRIPOS>ATOM
   1 C1            -0.0359    -0.6759     2.4241 C.ar    
   2 C2             0.6738    -1.1533     3.5171 C.ar    
   3 C3             2.0323    -1.3712     3.3977 C.ar    
   4 N4             2.6583    -1.1314     2.2615 N.ar    
   5 C5             2.0165    -0.6759     1.1980 C.ar    
   6 C6             0.6496    -0.4341     1.2462 C.ar    
   7 O7             2.6999    -0.4430     0.0494 O.3     
   8 C8             4.0473    -0.6249     0.0603 C.ar    
   9 C9             4.5731    -1.9103     0.0079 C.ar    
  10 C10            5.9393    -2.1062     0.0184 C.ar    
  11 C11            6.7988    -1.0183     0.0820 C.ar    
  12 C12            6.2743     0.2822     0.1350 C.ar    
  13 C13            4.8901     0.4701     0.1177 C.ar    
  14 N14            8.1786    -1.2168     0.0934 N.am    
  15 C15            8.8574    -1.2985    -1.0680 C.2     
  16 C16            8.8908    -1.3368     1.3681 C.3     
  17 O17           10.0451    -1.5441    -1.0604 O.2     
  18 C18            8.1406    -1.0847    -2.3763 C.3     
  19 C19            8.8109    -1.9215    -3.4678 C.3     
  20 C20            8.0832    -1.7044    -4.7960 C.3     
  21 C21            8.1474    -0.2240    -5.1767 C.3     
  22 C22            7.4771     0.6128    -4.0852 C.3     
  23 C23            8.2048     0.3958    -2.7570 C.3     
  24 C24            7.4197    -0.0069    -6.5050 C.3     
  25 C25            8.9335    -2.8062     1.7922 C.3     
  26 O26            9.7115    -3.5507     0.8529 O.3     
  27 C27            9.8502    -4.8834     1.0849 C.ar    
  28 C28           10.5926    -5.6656     0.2127 C.ar    
  29 C29           10.7339    -7.0193     0.4486 C.ar    
  30 C30            9.2541    -5.4594     2.1969 C.ar    
  31 C31            9.3954    -6.8131     2.4328 C.ar    
  32 C32           10.1338    -7.5962     1.5580 C.ar    
  33 O33           10.2729    -8.9288     1.7903 O.3     
  34 C34           11.0467    -9.6742     0.8482 C.3     
  35 C35           -0.0773     0.0847     0.0323 C.3     
  36 F36           -1.4340     0.2448     0.3342 F       
  37 F37            0.4652     1.3179    -0.3445 F       
  38 F38            0.0618    -0.8271    -1.0196 F       
  39 C39            7.1790     1.4438     0.2032 C.2     
  40 O40            8.3825     1.2768     0.2135 O.2     
  41 O41            6.6714     2.6911     0.2541 O.3     
  42 H42           -1.0997    -0.5012     2.4899 H       
  43 H43            0.1692    -1.3520     4.4510 H       
  44 H44            2.5893    -1.7423     4.2453 H       
  45 H45            3.9091    -2.7606    -0.0409 H       
  46 H46            6.3404    -3.1081    -0.0225 H       
  47 H47            4.4790     1.4680     0.1583 H       
  48 H48            9.9080    -0.9623     1.2526 H       
  49 H49            8.3732    -0.7536     2.1297 H       
  50 H50            7.0989    -1.3886    -2.2737 H       
  51 H51            9.8527    -1.6176    -3.5704 H       
  52 H52            8.7652    -2.9762    -3.1966 H       
  53 H53            8.5607    -2.3006    -5.5736 H       
  54 H54            7.0415    -2.0084    -4.6935 H       
  55 H55            9.1891     0.0800    -5.2793 H       
  56 H56            7.5228     1.6676    -4.3565 H       
  57 H57            6.4354     0.3089    -3.9827 H       
  58 H58            7.7273     0.9919    -1.9794 H       
  59 H59            9.2466     0.6997    -2.8596 H       
  60 H60            6.3780    -0.3108    -6.4024 H       
  61 H61            7.4654     1.0478    -6.7762 H       
  62 H62            7.8972    -0.6030    -7.2826 H       
  63 H63            9.3841    -2.8859     2.7814 H       
  64 H64            7.9196    -3.2054     1.8216 H       
  65 H65           11.0599    -5.2164    -0.6512 H       
  66 H66           11.3113    -7.6285    -0.2310 H       
  67 H67            8.6798    -4.8495     2.8785 H       
  68 H68            8.9318    -7.2615     3.2991 H       
  69 H69           10.5919    -9.5950    -0.1392 H       
  70 H70           12.0606    -9.2754     0.8143 H       
  71 H71           11.0779   -10.7209     1.1509 H       
  72 H72            7.3041     3.4211     0.2979 H       
@<TRIPOS>BOND
   1    1    2 ar
   2    1    6 ar
   3    1   42 1
   4    2    3 ar
   5    2   43 1
   6    3    4 ar
   7    3   44 1
   8    4    5 ar
   9    5    6 ar
  10    5    7 1
  11    6   35 1
  12    7    8 1
  13    8    9 ar
  14    8   13 ar
  15    9   10 ar
  16    9   45 1
  17   10   11 ar
  18   10   46 1
  19   11   12 ar
  20   11   14 1
  21   12   13 ar
  22   12   39 1
  23   13   47 1
  24   14   15 am
  25   14   16 1
  26   15   17 2
  27   15   18 1
  28   16   25 1
  29   16   48 1
  30   16   49 1
  31   18   19 1
  32   18   23 1
  33   18   50 1
  34   19   20 1
  35   19   51 1
  36   19   52 1
  37   20   21 1
  38   20   53 1
  39   20   54 1
  40   21   22 1
  41   21   24 1
  42   21   55 1
  43   22   23 1
  44   22   56 1
  45   22   57 1
  46   23   58 1
  47   23   59 1
  48   24   60 1
  49   24   61 1
  50   24   62 1
  51   25   26 1
  52   25   63 1
  53   25   64 1
  54   26   27 1
  55   27   28 ar
  56   27   30 ar
  57   28   29 ar
  58   28   65 1
  59   29   32 ar
  60   29   66 1
  61   30   31 ar
  62   30   67 1
  63   31   32 ar
  64   31   68 1
  65   32   33 1
  66   33   34 1
  67   34   69 1
  68   34   70 1
  69   34   71 1
  70   35   36 1
  71   35   37 1
  72   35   38 1
  73   39   40 2
  74   39   41 1
  75   41   72 1

#	End of record

