#	Name: ASD03091683
#	Creating user name:	WinNT
#	Creation time:	15. 06. 2019 20:31

#	Modifying user name:	WinNT
#	Modification time:	15. 06. 2019 20:31

#	Program:	/corina/corina34_cracker 3.40 0067  02.08.2006

@<TRIPOS>MOLECULE
ASD03091683
  55   59    0    0    0
SMALL
NO_CHARGES


@<TRIPOS>ATOM
   1 C1             0.1989     0.6588    -0.0474 C.ar    
   2 C2            -0.8484     1.5576     0.0343 C.ar    
   3 C3            -2.1547     1.0886     0.1026 C.ar    
   4 C4            -2.4153    -0.2781     0.0892 C.ar    
   5 C5            -1.3792    -1.1829     0.0087 C.ar    
   6 C6            -0.0666    -0.7212    -0.0604 C.ar    
   7 O7             1.4883     1.0742    -0.1103 O.3     
   8 C8             2.4718     0.2472     0.5119 C.3     
   9 N9             2.3115    -1.1496     0.1068 N.am    
  10 C10            1.0781    -1.6479    -0.1424 C.2     
  11 C11           -3.8374    -0.7712     0.1637 C.3     
  12 C12           -4.2621    -0.8636     1.6067 C.ar    
  13 C13           -3.9768    -2.0003     2.3504 C.ar    
  14 C14           -4.9344     0.1842     2.2049 C.ar    
  15 N15           -5.3098     0.1140     3.4674 N.ar    
  16 C16           -5.0607    -0.9542     4.2073 C.ar    
  17 C17           -4.3844    -2.0437     3.6724 C.ar    
  18 O18            0.9189    -2.8203    -0.4241 O.2     
  19 C19            3.4888    -2.0107    -0.0295 C.3     
  20 C20            3.5746    -2.5650    -1.4666 C.3     
  21 O21            4.4909    -1.7939    -2.2462 O.3     
  22 O22           -3.1841     1.9702     0.1834 O.3     
  23 C23            3.3629    -3.2274     0.9041 C.3     
  24 C24            3.3766    -4.4786     0.0018 C.3     
  25 C25            4.1001    -4.0107    -1.2854 C.3     
  26 N26           -5.4770    -0.9846     5.5417 N.pl3   
  27 N27           -5.2799    -2.0379     6.4441 N.2     
  28 C28           -5.8068    -1.6979     7.5922 C.2     
  29 C29           -6.3576    -0.4178     7.4629 C.2     
  30 C30           -6.1394     0.0044     6.1963 C.2     
  31 C31           -3.6741     2.5098    -1.0458 C.3     
  32 F32           -0.6029     2.8860     0.0480 F       
  33 H33           -1.5834    -2.2434    -0.0009 H       
  34 H34            3.4646     0.5923     0.2234 H       
  35 H35            2.3685     0.3203     1.5946 H       
  36 H36           -4.4910    -0.0763    -0.3636 H       
  37 H37           -3.9053    -1.7559    -0.2988 H       
  38 H38           -3.4491    -2.8320     1.9075 H       
  39 H39           -5.1552     1.0725     1.6317 H       
  40 H40           -4.1796    -2.9128     4.2800 H       
  41 H41            4.3917    -1.4488     0.2093 H       
  42 H42            2.5894    -2.5707    -1.9327 H       
  43 H43            4.6277    -2.1326    -3.1415 H       
  44 H44            4.2051    -3.2564     1.5954 H       
  45 H45            2.4258    -3.1772     1.4586 H       
  46 H46            3.9309    -5.2868     0.4787 H       
  47 H47            2.3589    -4.7955    -0.2264 H       
  48 H48            3.8188    -4.6333    -2.1347 H       
  49 H49            5.1809    -4.0140    -1.1438 H       
  50 H50           -5.8158    -2.3023     8.4872 H       
  51 H51           -6.8642     0.1369     8.2388 H       
  52 H52           -6.4398     0.9546     5.7801 H       
  53 H53           -2.8698     3.0392    -1.5565 H       
  54 H54           -4.0359     1.7000    -1.6794 H       
  55 H55           -4.4905     3.2017    -0.8389 H       
@<TRIPOS>BOND
   1    1    6 ar
   2    1    7 1
   3    1    2 ar
   4    2    3 ar
   5    2   32 1
   6    3    4 ar
   7    3   22 1
   8    4    5 ar
   9    4   11 1
  10    5    6 ar
  11    5   33 1
  12    6   10 1
  13    7    8 1
  14    8    9 1
  15    8   34 1
  16    8   35 1
  17    9   10 am
  18    9   19 1
  19   10   18 2
  20   11   12 1
  21   11   36 1
  22   11   37 1
  23   12   14 ar
  24   12   13 ar
  25   13   17 ar
  26   13   38 1
  27   14   15 ar
  28   14   39 1
  29   15   16 ar
  30   16   26 1
  31   16   17 ar
  32   17   40 1
  33   19   23 1
  34   19   20 1
  35   19   41 1
  36   20   21 1
  37   20   25 1
  38   20   42 1
  39   21   43 1
  40   22   31 1
  41   23   24 1
  42   23   44 1
  43   23   45 1
  44   24   25 1
  45   24   46 1
  46   24   47 1
  47   25   48 1
  48   25   49 1
  49   26   30 1
  50   26   27 1
  51   27   28 2
  52   28   29 1
  53   28   50 1
  54   29   30 2
  55   29   51 1
  56   30   52 1
  57   31   53 1
  58   31   54 1
  59   31   55 1

#	End of record

