#	Name: ASD02198352
#	Creating user name:	WinNT
#	Creation time:	15. 06. 2019 20:19

#	Modifying user name:	WinNT
#	Modification time:	15. 06. 2019 20:19

#	Program:	/corina/corina34_cracker 3.40 0067  02.08.2006

@<TRIPOS>MOLECULE
ASD02198352
  37   39    0    0    0
SMALL
NO_CHARGES


@<TRIPOS>ATOM
   1 C1            -0.0311     1.3689     0.1491 C.2     
   2 C2            -0.0282    -0.0137     0.1858 C.2     
   3 S3             1.6394     1.9115     0.2860 S.3     
   4 C4             2.1756     0.2918     0.3771 C.2     
   5 N5             1.1709    -0.5334     0.3079 N.2     
   6 N6            -1.1810    -0.7773     0.1020 N.pl3   
   7 C7            -1.1639     2.1935     0.0197 C.2     
   8 C8            -1.0273     3.6626     0.1388 C.ar    
   9 O9            -2.2579     1.6979    -0.1904 O.2     
  10 N10            3.4917    -0.0890     0.5062 N.pl3   
  11 C11           -1.9144     4.5050    -0.5319 C.ar    
  12 C12           -0.0145     4.2104     0.9269 C.ar    
  13 C13            0.1071     5.5815     1.0341 C.ar    
  14 C14           -0.7741     6.4119     0.3616 C.ar    
  15 C15           -1.7827     5.8738    -0.4170 C.ar    
  16 C16            3.8395    -1.5105     0.5751 C.3     
  17 C17            5.2869    -1.7227     0.0979 C.3     
  18 C18            6.0580    -2.3322     1.2869 C.3     
  19 C19            4.9587    -2.9986     2.1510 C.3     
  20 C20            3.7815    -1.9984     2.0374 C.3     
  21 Cl21           1.3662     6.2658     2.0138 Cl      
  22 H22           -2.0443    -0.3441     0.0129 H       
  23 H23           -1.1250    -1.7452     0.1326 H       
  24 H24            4.1890     0.5837     0.5516 H       
  25 H25           -2.7026     4.0866    -1.1403 H       
  26 H26            0.6725     3.5634     1.4520 H       
  27 H27           -0.6757     7.4838     0.4489 H       
  28 H28           -2.4668     6.5266    -0.9389 H       
  29 H29            3.1541    -2.0926    -0.0410 H       
  30 H30            5.3041    -2.4084    -0.7492 H       
  31 H31            5.7306    -0.7681    -0.1849 H       
  32 H32            6.7720    -3.0776     0.9367 H       
  33 H33            6.5666    -1.5514     1.8523 H       
  34 H34            4.6813    -3.9699     1.7415 H       
  35 H35            5.2861    -3.0939     3.1863 H       
  36 H36            3.9225    -1.1637     2.7240 H       
  37 H37            2.8342    -2.5002     2.2348 H       
@<TRIPOS>BOND
   1    1    2 2
   2    1    3 1
   3    1    7 1
   4    2    6 1
   5    2    5 1
   6    3    4 1
   7    4    5 2
   8    4   10 1
   9    6   22 1
  10    6   23 1
  11    7    8 1
  12    7    9 2
  13    8   11 ar
  14    8   12 ar
  15   10   16 1
  16   10   24 1
  17   11   15 ar
  18   11   25 1
  19   12   13 ar
  20   12   26 1
  21   13   14 ar
  22   13   21 1
  23   14   15 ar
  24   14   27 1
  25   15   28 1
  26   16   17 1
  27   16   20 1
  28   16   29 1
  29   17   18 1
  30   17   30 1
  31   17   31 1
  32   18   19 1
  33   18   32 1
  34   18   33 1
  35   19   20 1
  36   19   34 1
  37   19   35 1
  38   20   36 1
  39   20   37 1

#	End of record

