#	Name: ASD01914425
#	Creating user name:	WinNT
#	Creation time:	15. 06. 2019 20:03

#	Modifying user name:	WinNT
#	Modification time:	15. 06. 2019 20:03

#	Program:	/corina/corina34_cracker 3.40 0067  02.08.2006

@<TRIPOS>MOLECULE
ASD01914425
  56   60    0    0    0
SMALL
NO_CHARGES


@<TRIPOS>ATOM
   1 C1            -0.0167     1.3769     0.0096 C.ar    
   2 C2             0.0021    -0.0041     0.0020 C.ar    
   3 C3             1.2140    -0.6809    -0.0132 C.ar    
   4 C4             2.4051     0.0320    -0.0207 C.ar    
   5 C5             2.3825     1.4129    -0.0131 C.ar    
   6 C6             1.1726     2.0864     0.0021 C.ar    
   7 N7             1.2350    -2.0835    -0.0204 N.pl3   
   8 C8             0.5465    -2.9098     0.8262 C.2     
   9 C9             0.8556    -4.1829     0.4666 C.2     
  10 N10            1.7115    -4.1228    -0.5738 N.2     
  11 C11            1.9380    -2.8743    -0.8732 C.2     
  12 C12            0.3433    -5.4199     1.1057 C.ar    
  13 C13           -0.6195    -5.3403     2.1102 C.ar    
  14 C14           -1.0947    -6.4928     2.7035 C.ar    
  15 C15           -0.6183    -7.7272     2.3041 C.ar    
  16 C16            0.3409    -7.8152     1.3041 C.ar    
  17 C17            0.8189    -6.6646     0.6996 C.ar    
  18 C18            2.8396    -2.3875    -1.9782 C.3     
  19 O19            0.8600    -2.5095    -3.2573 O.2     
  20 C20            2.0432    -2.2432    -3.2495 C.2     
  21 N21            2.6458    -1.8183    -4.3776 N.am    
  22 F22            1.1524     3.4372     0.0091 F       
  23 C23            4.0843    -1.4953    -4.3911 C.3     
  24 C24            1.8869    -1.6707    -5.6287 C.3     
  25 C25            1.8708    -0.1919    -6.0354 C.3     
  26 C26            3.2620     0.3694    -5.8854 C.2     
  27 C27            4.2462    -0.2048    -5.1559 C.2     
  28 N28            3.7595     1.4904    -6.4246 N.2     
  29 C29            5.0017     1.6191    -6.0460 C.2     
  30 O30            5.3288     0.5777    -5.2549 O.3     
  31 C31            5.9237     2.7469    -6.4319 C.3     
  32 O32            0.8069    -9.0311     0.9148 O.3     
  33 C33            0.2657   -10.1758     1.5773 C.3     
  34 H34           -0.9594     1.9038     0.0169 H       
  35 H35           -0.9256    -0.5571     0.0082 H       
  36 H36            3.3489    -0.4929    -0.0321 H       
  37 H37            3.3090     1.9679    -0.0185 H       
  38 H38           -0.1144    -2.6081     1.6254 H       
  39 H39           -0.9936    -4.3772     2.4248 H       
  40 H40           -1.8406    -6.4296     3.4820 H       
  41 H41           -0.9929    -8.6259     2.7714 H       
  42 H42            1.5650    -6.7315    -0.0784 H       
  43 H43            3.2626    -1.4214    -1.7029 H       
  44 H44            3.6446    -3.1058    -2.1333 H       
  45 H45            4.4458    -1.3695    -3.3705 H       
  46 H46            4.6389    -2.2922    -4.8864 H       
  47 H47            2.3609    -2.2595    -6.4140 H       
  48 H48            0.8648    -2.0183    -5.4779 H       
  49 H49            1.5507    -0.1021    -7.0734 H       
  50 H50            1.1842     0.3567    -5.3907 H       
  51 H51            5.8398     3.5512    -5.7010 H       
  52 H52            6.9513     2.3840    -6.4564 H       
  53 H53            5.6471     3.1213    -7.4175 H       
  54 H54            0.4747   -10.1102     2.6451 H       
  55 H55           -0.8122   -10.2111     1.4196 H       
  56 H56            0.7219   -11.0792     1.1726 H       
@<TRIPOS>BOND
   1    1    2 ar
   2    1    6 ar
   3    1   34 1
   4    2    3 ar
   5    2   35 1
   6    3    4 ar
   7    3    7 1
   8    4    5 ar
   9    4   36 1
  10    5    6 ar
  11    5   37 1
  12    6   22 1
  13    7    8 1
  14    7   11 1
  15    8    9 2
  16    8   38 1
  17    9   10 1
  18    9   12 1
  19   10   11 2
  20   11   18 1
  21   12   13 ar
  22   12   17 ar
  23   13   14 ar
  24   13   39 1
  25   14   15 ar
  26   14   40 1
  27   15   16 ar
  28   15   41 1
  29   16   17 ar
  30   16   32 1
  31   17   42 1
  32   18   20 1
  33   18   43 1
  34   18   44 1
  35   19   20 2
  36   20   21 am
  37   21   24 1
  38   21   23 1
  39   23   27 1
  40   23   45 1
  41   23   46 1
  42   24   25 1
  43   24   47 1
  44   24   48 1
  45   25   26 1
  46   25   49 1
  47   25   50 1
  48   26   27 2
  49   26   28 1
  50   27   30 1
  51   28   29 2
  52   29   30 1
  53   29   31 1
  54   31   51 1
  55   31   52 1
  56   31   53 1
  57   32   33 1
  58   33   54 1
  59   33   55 1
  60   33   56 1

#	End of record

