#	Name: ASD06590063
#	Creating user name:	WinNT
#	Creation time:	15. 06. 2019 21:06

#	Modifying user name:	WinNT
#	Modification time:	15. 06. 2019 21:06

#	Program:	/corina/corina34_cracker 3.40 0067  02.08.2006

@<TRIPOS>MOLECULE
ASD06590063
 276  277    0    0    0
SMALL
NO_CHARGES


@<TRIPOS>ATOM
   1 C1            -3.2411    -6.1738    -1.0400 C.2     
   2 O2            -3.6263    -7.2946    -0.7826 O.2     
   3 N3            -0.9858    -7.0075    -0.6889 N.3     
   4 C4            -1.7751    -5.9164    -1.2758 C.3     
   5 C5            -1.5055    -5.8439    -2.7801 C.3     
   6 C6            -0.0658    -5.4653    -3.0148 C.2     
   7 O7             0.6716    -5.2727    -2.0721 O.2     
   8 N8             0.4018    -5.3410    -4.2727 N.am    
   9 C9            -6.3172    -4.1215    -1.0441 C.2     
  10 O10           -5.7300    -3.0939    -1.3090 O.2     
  11 N11           -4.1249    -5.1594    -1.1207 N.am    
  12 C12           -5.5508    -5.4108    -0.8975 C.3     
  13 C13           -9.6808    -2.9414    -0.2339 C.2     
  14 O14           -9.9454    -3.9493     0.3867 O.2     
  15 N15           -7.6549    -4.1104    -0.8809 N.am    
  16 C16           -8.3999    -2.8570    -1.0234 C.3     
  17 C17           -8.7253    -2.6223    -2.4998 C.3     
  18 C18           -7.4267    -2.4124    -3.2812 C.3     
  19 C19           -7.7473    -2.1812    -4.7354 C.2     
  20 O20           -8.8965    -2.1839    -5.1086 O.2     
  21 O21           -6.7561    -1.9721    -5.6162 O.3     
  22 C22          -12.7941    -1.0354    -0.0396 C.2     
  23 O23          -12.4577    -0.2316    -0.8832 O.2     
  24 N24          -10.5324    -1.8969    -0.2176 N.am    
  25 C25          -11.7776    -1.9789     0.5499 C.3     
  26 C26          -11.5062    -1.5920     2.0051 C.3     
  27 C27          -10.5794    -2.6282     2.6440 C.3     
  28 C28          -10.8405    -0.2151     2.0510 C.3     
  29 C29          -16.1679     0.0440     0.8631 C.2     
  30 O30          -16.1613    -0.6042     1.8882 O.2     
  31 N31          -14.0769    -1.0848     0.3706 N.am    
  32 C32          -15.0443    -0.1051    -0.1300 C.3     
  33 C33          -15.6078    -0.5835    -1.4696 C.3     
  34 C34          -14.4880    -0.6155    -2.5117 C.3     
  35 C35          -15.0430    -1.0867    -3.8312 C.2     
  36 O36          -16.2185    -1.3690    -3.9285 O.2     
  37 N37          -14.2331    -1.1942    -4.9031 N.am    
  38 C38          -19.5117     1.5212     0.8660 C.2     
  39 O39          -19.4851     1.7215    -0.3299 O.2     
  40 N40          -17.1802     0.8977     0.6122 N.am    
  41 C41          -18.2725     1.0427     1.5777 C.3     
  42 C42          -17.8746     2.0600     2.6489 C.3     
  43 C43          -22.7482     2.9114     1.8435 C.2     
  44 O44          -22.4122     3.0244     3.0034 O.2     
  45 N45          -20.6496     1.7267     1.5585 N.am    
  46 C46          -21.8542     2.1919     0.8667 C.3     
  47 C47          -22.6009     0.9922     0.2801 C.3     
  48 C48          -21.7410     0.3355    -0.8017 C.3     
  49 C49          -22.4765    -0.8461    -1.3794 C.2     
  50 O50          -23.5756    -1.1336    -0.9681 O.2     
  51 O51          -21.9105    -1.5793    -2.3509 O.3     
  52 C52          -26.1979     3.9968     2.0474 C.2     
  53 O53          -26.5229     3.2416     1.1558 O.2     
  54 N54          -23.9212     3.4292     1.4282 N.am    
  55 C55          -24.7388     4.2224     2.3494 C.3     
  56 C56          -24.4061     5.7059     2.1784 C.3     
  57 C57          -24.5398     6.0920     0.7040 C.3     
  58 C58          -26.0092     6.0081     0.2860 C.3     
  59 C59          -22.9721     5.9641     2.6452 C.3     
  60 C60          -29.3959     5.5108     2.9660 C.2     
  61 O61          -28.8622     6.5115     3.3959 O.2     
  62 N62          -27.1417     4.6342     2.7682 N.am    
  63 C63          -28.5582     4.3277     2.5542 C.3     
  64 C64          -28.9488     3.1095     3.3934 C.3     
  65 C65          -28.1885     1.8800     2.8923 C.3     
  66 C66          -28.5791     0.6617     3.7314 C.3     
  67 C67          -27.8188    -0.5678     3.2303 C.3     
  68 N68          -28.1938    -1.7375     4.0360 N.3     
  69 C69          -32.9359     6.1383     3.6277 C.2     
  70 O70          -33.2141     4.9596     3.5640 O.2     
  71 N71          -30.7381     5.4569     2.8566 N.am    
  72 C72          -31.5525     6.6070     3.2568 C.3     
  73 C73          -31.6441     7.5966     2.0936 C.3     
  74 C74          -30.2554     8.1670     1.7986 C.3     
  75 C75          -30.3470     9.1566     0.6353 C.3     
  76 C76          -28.9583     9.7270     0.3404 C.3     
  77 N77          -29.0463    10.6771    -0.7765 N.3     
  78 C78          -36.1883     7.7035     4.2065 C.2     
  79 O79          -35.8012     8.7833     3.8127 O.2     
  80 N80          -33.8638     7.0290     4.0303 N.am    
  81 C81          -35.2087     6.5733     4.3909 C.3     
  82 C82          -35.2195     6.1224     5.8529 C.3     
  83 O83          -34.9609     7.2443     6.6993 O.3     
  84 C84          -39.6379     8.3970     5.1977 C.2     
  85 O85          -39.6865     7.4212     5.9164 O.2     
  86 N86          -37.4945     7.5144     4.4793 N.am    
  87 C87          -38.4468     8.6131     4.3000 C.3     
  88 C88          -38.9082     8.6554     2.8419 C.3     
  89 C89          -37.7380     8.9932     1.9544 C.2     
  90 C90          -37.3988    10.2138     1.5106 C.2     
  91 N91          -36.2786    10.1315     0.7290 N.pl3   
  92 C92          -35.8591     8.8225     0.6487 C.ar    
  93 C93          -34.8000     8.1943     0.0020 C.ar    
  94 C94          -34.6405     6.8305     0.1164 C.ar    
  95 C95          -35.5268     6.0749     0.8712 C.ar    
  96 C96          -36.5746     6.6715     1.5146 C.ar    
  97 C97          -36.7515     8.0528     1.4175 C.ar    
  98 C98          -43.0053     9.7873     5.4985 C.2     
  99 O99          -42.9023    10.4073     4.4613 O.2     
 100 N100         -40.6491     9.2880     5.2018 N.am    
 101 C101         -41.8069     9.0779     6.0745 C.3     
 102 C102         -41.5043     9.6359     7.4666 C.3     
 103 O103         -41.3433    11.0536     7.3868 O.3     
 104 C104         -45.3482    11.8628     6.0190 C.2     
 105 O105         -44.4603    12.2714     6.7294 O.2     
 106 N106         -44.1914     9.7327     6.1361 N.am    
 107 C107         -45.3564    10.4224     5.5762 C.3     
 108 C108         -46.6362     9.7444     6.0696 C.3     
 109 C109         -46.7046     8.3197     5.5161 C.3     
 110 C110         -47.9844     7.6418     6.0095 C.3     
 111 N111         -48.0499     6.2776     5.4795 N.pl3   
 112 C112         -49.1181     5.4699     5.7904 C.2     
 113 N113         -49.1764     4.2561     5.3188 N.2     
 114 N114         -50.1249     5.9424     6.5986 N.pl3   
 115 O115         -46.3273    12.6919     5.6243 O.3     
 116 C116           1.6894    -5.0025    -4.4825 C.2     
 117 O117           2.4269    -4.8099    -3.5398 O.2     
 118 C118          16.2835    -1.1556   -15.5912 C.3     
 119 C119          15.7526    -1.2968   -14.1632 C.3     
 120 C120          14.2733    -1.6853   -14.2052 C.3     
 121 C121          13.7424    -1.8265   -12.7772 C.3     
 122 C122          12.2632    -2.2150   -12.8191 C.3     
 123 C123          11.7323    -2.3562   -11.3912 C.3     
 124 C124          10.2530    -2.7447   -11.4331 C.3     
 125 C125           9.7221    -2.8859   -10.0051 C.3     
 126 C126           8.2429    -3.2744   -10.0471 C.3     
 127 C127           7.7119    -3.4156    -8.6191 C.3     
 128 C128           6.2327    -3.8041    -8.6611 C.3     
 129 C129           5.7018    -3.9453    -7.2331 C.3     
 130 C130           4.2225    -4.3338    -7.2750 C.3     
 131 C131           3.6916    -4.4749    -5.8471 C.3     
 132 C132           2.2124    -4.8635    -5.8890 C.3     
 133 H133          -1.0967    -7.0353     0.3136 H       
 134 H134          -1.2295    -7.8941    -1.1044 H       
 135 H135          -1.4925    -4.9723    -0.8101 H       
 136 H136          -1.7040    -6.8157    -3.2321 H       
 137 H137          -2.1563    -5.0941    -3.2301 H       
 138 H138          -0.1882    -5.4952    -5.0269 H       
 139 H139          -3.8169    -4.2630    -1.3266 H       
 140 H140          -5.6968    -5.8080     0.1070 H       
 141 H141          -5.9115    -6.1331    -1.6298 H       
 142 H142          -8.1245    -4.9323    -0.6690 H       
 143 H143          -7.7959    -2.0307    -0.6486 H       
 144 H144          -9.2528    -3.4891    -2.8979 H       
 145 H145          -9.3548    -1.7377    -2.5970 H       
 146 H146          -6.8992    -1.5456    -2.8831 H       
 147 H147          -6.7973    -3.2969    -3.1841 H       
 148 H148          -7.0109    -1.8286    -6.5379 H       
 149 H149         -10.3208    -1.0908    -0.7139 H       
 150 H150         -12.1621    -2.9981     0.5106 H       
 151 H151         -12.4474    -1.5589     2.5538 H       
 152 H152          -9.6382    -2.6612     2.0952 H       
 153 H153         -10.3861    -2.3525     3.6807 H       
 154 H154         -11.0537    -3.6090     2.6113 H       
 155 H155         -11.5344     0.5367     1.6751 H       
 156 H156         -10.5690     0.0230     3.0795 H       
 157 H157          -9.9438    -0.2242     1.4313 H       
 158 H158         -14.3597    -1.7690     0.9974 H       
 159 H159         -14.5499     0.8567    -0.2664 H       
 160 H160         -16.0237    -1.5842    -1.3523 H       
 161 H161         -16.3911     0.0992    -1.7989 H       
 162 H162         -14.0721     0.3852    -2.6290 H       
 163 H163         -13.7047    -1.2982    -2.1824 H       
 164 H164         -13.2930    -0.9684    -4.8252 H       
 165 H165         -14.5904    -1.4975    -5.7524 H       
 166 H166         -17.1855     1.4161    -0.2076 H       
 167 H167         -18.4724     0.0796     2.0475 H       
 168 H168         -18.6873     2.1679     3.3673 H       
 169 H169         -16.9783     1.7138     3.1637 H       
 170 H170         -17.6748     3.0230     2.1791 H       
 171 H171         -20.6709     1.5665     2.5150 H       
 172 H172         -21.5719     2.8724     0.0633 H       
 173 H173         -22.8051     0.2697     1.0703 H       
 174 H174         -23.5412     1.3279    -0.1572 H       
 175 H175         -21.5368     1.0581    -1.5918 H       
 176 H176         -20.8007    -0.0002    -0.3643 H       
 177 H177         -22.4207    -2.3275    -2.6900 H       
 178 H178         -24.2240     3.2768     0.5194 H       
 179 H179         -24.5289     3.9188     3.3750 H       
 180 H180         -25.0955     6.3039     2.7745 H       
 181 H181         -24.1789     7.1105     0.5609 H       
 182 H182         -23.9491     5.4082     0.0944 H       
 183 H183         -26.6323     6.4643     1.0553 H       
 184 H184         -26.1497     6.5374    -0.6564 H       
 185 H185         -26.2925     4.9630     0.1615 H       
 186 H186         -22.2881     5.3224     2.0898 H       
 187 H187         -22.7149     7.0084     2.4684 H       
 188 H188         -22.8917     5.7454     3.7100 H       
 189 H189         -26.8830     5.2959     3.4286 H       
 190 H190         -28.7279     4.1118     1.4994 H       
 191 H191         -28.6966     3.2918     4.4380 H       
 192 H192         -30.0210     2.9351     3.3036 H       
 193 H193         -28.4407     1.6976     1.8477 H       
 194 H194         -27.1163     2.0543     2.9820 H       
 195 H195         -28.3268     0.8441     4.7760 H       
 196 H196         -29.6513     0.4874     3.6417 H       
 197 H197         -28.0710    -0.7501     2.1857 H       
 198 H198         -26.7465    -0.3934     3.3201 H       
 199 H199         -29.1924    -1.8816     4.0212 H       
 200 H200         -27.7046    -2.5631     3.7244 H       
 201 H201         -31.1649     4.6566     2.5128 H       
 202 H202         -31.0925     7.0968     4.1151 H       
 203 H203         -32.0216     7.0836     1.2090 H       
 204 H204         -32.3213     8.4083     2.3595 H       
 205 H205         -29.8779     8.6800     2.6832 H       
 206 H206         -29.5782     7.3553     1.5327 H       
 207 H207         -30.7245     8.6436    -0.2492 H       
 208 H208         -31.0242     9.9683     0.9013 H       
 209 H209         -28.5808    10.2400     1.2249 H       
 210 H210         -28.2811     8.9153     0.0744 H       
 211 H211         -28.1411    11.0680    -0.9908 H       
 212 H212         -29.4540    10.2418    -1.5903 H       
 213 H213         -33.6413     7.9717     4.0813 H       
 214 H214         -35.4930     5.7380     3.7509 H       
 215 H215         -36.1949     5.7011     6.0959 H       
 216 H216         -34.4490     5.3667     6.0057 H       
 217 H217         -34.9528     7.0318     7.6426 H       
 218 H218         -37.8041     6.6507     4.7942 H       
 219 H219         -37.9652     9.5568     4.5563 H       
 220 H220         -39.3094     7.6821     2.5593 H       
 221 H221         -39.6820     9.4144     2.7275 H       
 222 H222         -37.9312    11.1258     1.7366 H       
 223 H223         -35.8448    10.8832     0.2960 H       
 224 H224         -34.1052     8.7735    -0.5880 H       
 225 H225         -33.8177     6.3445    -0.3868 H       
 226 H226         -35.3875     5.0069     0.9506 H       
 227 H227         -37.2605     6.0771     2.0999 H       
 228 H228         -40.6102    10.0684     4.6270 H       
 229 H229         -42.0172     8.0109     6.1485 H       
 230 H230         -42.3292     9.4012     8.1393 H       
 231 H231         -40.5866     9.1868     7.8464 H       
 232 H232         -41.1488    11.4756     8.2349 H       
 233 H233         -44.2738     9.2368     6.9657 H       
 234 H234         -45.3174    10.3766     4.4879 H       
 235 H235         -46.6329     9.7112     7.1591 H       
 236 H236         -47.5025    10.3097     5.7260 H       
 237 H237         -46.7079     8.3530     4.4266 H       
 238 H238         -45.8383     7.7544     5.8598 H       
 239 H239         -47.9811     7.6085     7.0990 H       
 240 H240         -48.8507     8.2071     5.6659 H       
 241 H241         -47.3395     5.9442     4.9093 H       
 242 H242         -49.9301     3.6863     5.5381 H       
 243 H243         -50.0816     6.8457     6.9495 H       
 244 H244         -50.8786     5.3726     6.8179 H       
 245 H245         -46.2792    13.6068     5.9338 H       
 246 H246          16.1719    -2.1046   -16.1158 H       
 247 H247          15.7196    -0.3830   -16.1138 H       
 248 H248          17.3373    -0.8788   -15.5613 H       
 249 H249          16.3165    -2.0694   -13.6406 H       
 250 H250          15.8642    -0.3478   -13.6386 H       
 251 H251          13.7094    -0.9127   -14.7278 H       
 252 H252          14.1617    -2.6343   -14.7297 H       
 253 H253          14.3064    -2.5991   -12.2546 H       
 254 H254          13.8541    -0.8775   -12.2526 H       
 255 H255          11.6992    -1.4424   -13.3418 H       
 256 H256          12.1515    -3.1640   -13.3437 H       
 257 H257          12.2962    -3.1288   -10.8685 H       
 258 H258          11.8439    -1.4072   -10.8666 H       
 259 H259           9.6891    -1.9721   -11.9557 H       
 260 H260          10.1414    -3.6937   -11.9577 H       
 261 H261          10.2860    -3.6585    -9.4825 H       
 262 H262           9.8337    -1.9369    -9.4806 H       
 263 H263           7.6789    -2.5018   -10.5697 H       
 264 H264           8.1312    -4.2234   -10.5717 H       
 265 H265           8.2759    -4.1882    -8.0965 H       
 266 H266           7.8236    -2.4666    -8.0945 H       
 267 H267           5.6687    -3.0315    -9.1837 H       
 268 H268           6.1210    -4.7531    -9.1856 H       
 269 H269           6.2657    -4.7179    -6.7105 H       
 270 H270           5.8134    -2.9963    -6.7085 H       
 271 H271           3.6586    -3.5612    -7.7977 H       
 272 H272           4.1109    -5.2828    -7.7996 H       
 273 H273           4.2555    -5.2476    -5.3245 H       
 274 H274           3.8033    -3.5260    -5.3225 H       
 275 H275           2.1007    -5.8125    -6.4136 H       
 276 H276           1.6484    -4.0909    -6.4116 H       
@<TRIPOS>BOND
   1    1    2 2
   2    1    4 1
   3    1   11 am
   4    3    4 1
   5    3  133 1
   6    3  134 1
   7    4    5 1
   8    4  135 1
   9    5    6 1
  10    5  136 1
  11    5  137 1
  12    6    7 2
  13    6    8 am
  14    8  116 am
  15    8  138 1
  16    9   10 2
  17    9   12 1
  18    9   15 am
  19   11   12 1
  20   11  139 1
  21   12  140 1
  22   12  141 1
  23   13   14 2
  24   13   16 1
  25   13   24 am
  26   15   16 1
  27   15  142 1
  28   16   17 1
  29   16  143 1
  30   17   18 1
  31   17  144 1
  32   17  145 1
  33   18   19 1
  34   18  146 1
  35   18  147 1
  36   19   20 2
  37   19   21 1
  38   21  148 1
  39   22   23 2
  40   22   25 1
  41   22   31 am
  42   24   25 1
  43   24  149 1
  44   25   26 1
  45   25  150 1
  46   26   27 1
  47   26   28 1
  48   26  151 1
  49   27  152 1
  50   27  153 1
  51   27  154 1
  52   28  155 1
  53   28  156 1
  54   28  157 1
  55   29   30 2
  56   29   32 1
  57   29   40 am
  58   31   32 1
  59   31  158 1
  60   32   33 1
  61   32  159 1
  62   33   34 1
  63   33  160 1
  64   33  161 1
  65   34   35 1
  66   34  162 1
  67   34  163 1
  68   35   36 2
  69   35   37 am
  70   37  164 1
  71   37  165 1
  72   38   39 2
  73   38   41 1
  74   38   45 am
  75   40   41 1
  76   40  166 1
  77   41   42 1
  78   41  167 1
  79   42  168 1
  80   42  169 1
  81   42  170 1
  82   43   44 2
  83   43   46 1
  84   43   54 am
  85   45   46 1
  86   45  171 1
  87   46   47 1
  88   46  172 1
  89   47   48 1
  90   47  173 1
  91   47  174 1
  92   48   49 1
  93   48  175 1
  94   48  176 1
  95   49   50 2
  96   49   51 1
  97   51  177 1
  98   52   53 2
  99   52   55 1
 100   52   62 am
 101   54   55 1
 102   54  178 1
 103   55   56 1
 104   55  179 1
 105   56   57 1
 106   56   59 1
 107   56  180 1
 108   57   58 1
 109   57  181 1
 110   57  182 1
 111   58  183 1
 112   58  184 1
 113   58  185 1
 114   59  186 1
 115   59  187 1
 116   59  188 1
 117   60   61 2
 118   60   63 1
 119   60   71 am
 120   62   63 1
 121   62  189 1
 122   63   64 1
 123   63  190 1
 124   64   65 1
 125   64  191 1
 126   64  192 1
 127   65   66 1
 128   65  193 1
 129   65  194 1
 130   66   67 1
 131   66  195 1
 132   66  196 1
 133   67   68 1
 134   67  197 1
 135   67  198 1
 136   68  199 1
 137   68  200 1
 138   69   70 2
 139   69   72 1
 140   69   80 am
 141   71   72 1
 142   71  201 1
 143   72   73 1
 144   72  202 1
 145   73   74 1
 146   73  203 1
 147   73  204 1
 148   74   75 1
 149   74  205 1
 150   74  206 1
 151   75   76 1
 152   75  207 1
 153   75  208 1
 154   76   77 1
 155   76  209 1
 156   76  210 1
 157   77  211 1
 158   77  212 1
 159   78   79 2
 160   78   81 1
 161   78   86 am
 162   80   81 1
 163   80  213 1
 164   81   82 1
 165   81  214 1
 166   82   83 1
 167   82  215 1
 168   82  216 1
 169   83  217 1
 170   84   85 2
 171   84   87 1
 172   84  100 am
 173   86   87 1
 174   86  218 1
 175   87   88 1
 176   87  219 1
 177   88   89 1
 178   88  220 1
 179   88  221 1
 180   89   90 2
 181   89   97 1
 182   90   91 1
 183   90  222 1
 184   91   92 1
 185   91  223 1
 186   92   93 ar
 187   92   97 ar
 188   93   94 ar
 189   93  224 1
 190   94   95 ar
 191   94  225 1
 192   95   96 ar
 193   95  226 1
 194   96   97 ar
 195   96  227 1
 196   98   99 2
 197   98  101 1
 198   98  106 am
 199  100  101 1
 200  100  228 1
 201  101  102 1
 202  101  229 1
 203  102  103 1
 204  102  230 1
 205  102  231 1
 206  103  232 1
 207  104  105 2
 208  104  107 1
 209  104  115 1
 210  106  107 1
 211  106  233 1
 212  107  108 1
 213  107  234 1
 214  108  109 1
 215  108  235 1
 216  108  236 1
 217  109  110 1
 218  109  237 1
 219  109  238 1
 220  110  111 1
 221  110  239 1
 222  110  240 1
 223  111  112 1
 224  111  241 1
 225  112  113 2
 226  112  114 1
 227  113  242 1
 228  114  243 1
 229  114  244 1
 230  115  245 1
 231  116  117 2
 232  116  132 1
 233  118  119 1
 234  118  246 1
 235  118  247 1
 236  118  248 1
 237  119  120 1
 238  119  249 1
 239  119  250 1
 240  120  121 1
 241  120  251 1
 242  120  252 1
 243  121  122 1
 244  121  253 1
 245  121  254 1
 246  122  123 1
 247  122  255 1
 248  122  256 1
 249  123  124 1
 250  123  257 1
 251  123  258 1
 252  124  125 1
 253  124  259 1
 254  124  260 1
 255  125  126 1
 256  125  261 1
 257  125  262 1
 258  126  127 1
 259  126  263 1
 260  126  264 1
 261  127  128 1
 262  127  265 1
 263  127  266 1
 264  128  129 1
 265  128  267 1
 266  128  268 1
 267  129  130 1
 268  129  269 1
 269  129  270 1
 270  130  131 1
 271  130  271 1
 272  130  272 1
 273  131  132 1
 274  131  273 1
 275  131  274 1
 276  132  275 1
 277  132  276 1

#	End of record

