#	Name: ASD04881345
#	Creating user name:	WinNT
#	Creation time:	15. 06. 2019 20:53

#	Modifying user name:	WinNT
#	Modification time:	15. 06. 2019 20:53

#	Program:	/corina/corina34_cracker 3.40 0067  02.08.2006

@<TRIPOS>MOLECULE
ASD04881345
  81   86    0    0    0
SMALL
NO_CHARGES


@<TRIPOS>ATOM
   1 C1             0.2064     1.4523    -0.0925 C.ar    
   2 C2            -0.0374     0.0774    -0.0345 C.ar    
   3 C3             1.0241    -0.8201    -0.0546 C.ar    
   4 C4             2.3191    -0.3581    -0.1322 C.ar    
   5 C5             2.5700     1.0156    -0.1905 C.ar    
   6 C6             1.5046     1.9201    -0.1704 C.ar    
   7 N7            -0.8647     2.3556    -0.0775 N.am    
   8 C8            -0.7275     3.5536     0.5245 C.2     
   9 O9             0.2876     3.8106     1.1434 O.2     
  10 C10           -1.8077     4.5524     0.4330 C.2     
  11 C11           -1.8082     5.7959     0.9864 C.2     
  12 O12           -2.9777     6.3690     0.6600 O.3     
  13 C13           -3.6803     5.4975    -0.0773 C.2     
  14 N14           -2.9895     4.4070    -0.2255 N.2     
  15 N15           -1.3453    -0.3942     0.0440 N.3     
  16 C16           -1.9679    -0.0104     1.3186 C.3     
  17 C17           -3.4253    -0.4773     1.3324 C.3     
  18 N18           -3.4721    -1.9340     1.1443 N.3     
  19 C19           -2.8495    -2.3178    -0.1303 C.3     
  20 C20           -1.3921    -1.8509    -0.1441 C.3     
  21 C21           -4.7713    -2.4024     1.2223 C.ar    
  22 C22           -5.0526     5.7454    -0.6488 C.3     
  23 C23           -6.1840     6.0469     0.3360 C.3     
  24 C24           -5.6165     7.1637    -0.5425 C.3     
  25 C25            3.9574     1.5103    -0.2726 C.2     
  26 N26            4.9841     0.6374    -0.2915 N.am    
  27 O27            4.1747     2.7056    -0.3233 O.2     
  28 C28            6.3619     1.1286    -0.3730 C.3     
  29 C29            7.3271    -0.0585    -0.3783 C.3     
  30 C30            8.7660     0.4546    -0.4635 C.3     
  31 N31            9.6902    -0.6821    -0.4686 N.am    
  32 C32           10.1169    -1.3077    -1.5792 C.2     
  33 C33           11.0515    -2.4393    -1.2124 C.3     
  34 C34           10.7984    -2.6664     0.2961 C.3     
  35 C35           10.2742    -1.2800     0.7378 C.3     
  36 O36            9.7985    -1.0088    -2.7106 O.2     
  37 N37           -5.7619    -1.5479     1.4424 N.ar    
  38 C38           -7.0132    -1.9471     1.5240 C.ar    
  39 C39           -7.3372    -3.3002     1.3795 C.ar    
  40 C40           -6.3056    -4.2270     1.1454 C.ar    
  41 C41           -5.0210    -3.7654     1.0626 C.ar    
  42 C42           -8.7327    -3.7460     1.4714 C.2     
  43 C43           -9.8291    -2.7432     1.7231 C.3     
  44 O44           -9.0034    -4.9217     1.3447 O.2     
  45 H45            0.8327    -1.8821    -0.0090 H       
  46 H46            3.1416    -1.0579    -0.1476 H       
  47 H47            1.6953     2.9821    -0.2157 H       
  48 H48           -1.7049     2.1187    -0.5004 H       
  49 H49           -1.0183     6.2375     1.5758 H       
  50 H50           -1.4284    -0.4780     2.1422 H       
  51 H51           -1.9321     1.0735     1.4290 H       
  52 H52           -3.8808    -0.2192     2.2885 H       
  53 H53           -3.9714     0.0113     0.5254 H       
  54 H54           -2.8853    -3.4016    -0.2407 H       
  55 H55           -3.3890    -1.8501    -0.9539 H       
  56 H56           -0.9366    -2.1089    -1.1001 H       
  57 H57           -0.8460    -2.3395     0.6629 H       
  58 H58           -5.3015     5.1700    -1.5405 H       
  59 H59           -7.1774     5.6703     0.0920 H       
  60 H60           -5.9359     6.0660     1.3972 H       
  61 H61           -4.9949     7.9175    -0.0592 H       
  62 H62           -6.2364     7.5217    -1.3644 H       
  63 H63            4.8108    -0.3162    -0.2510 H       
  64 H64            6.4887     1.7042    -1.2899 H       
  65 H65            6.5725     1.7643     0.4870 H       
  66 H66            7.2003    -0.6340     0.5386 H       
  67 H67            7.1165    -0.6941    -1.2384 H       
  68 H68            8.8929     1.0301    -1.3804 H       
  69 H69            8.9766     1.0902     0.3966 H       
  70 H70           10.8051    -3.3368    -1.7798 H       
  71 H71           12.0879    -2.1496    -1.3859 H       
  72 H72           10.0471    -3.4402     0.4534 H       
  73 H73           11.7250    -2.9133     0.8143 H       
  74 H74           11.0942    -0.6632     1.1055 H       
  75 H75            9.5122    -1.3943     1.5088 H       
  76 H76           -7.7956    -1.2247     1.7042 H       
  77 H77           -6.5233    -5.2785     1.0294 H       
  78 H78           -4.2065    -4.4507     0.8798 H       
  79 H79           -9.3970    -1.7462     1.8086 H       
  80 H80          -10.5366    -2.7627     0.8942 H       
  81 H81          -10.3467    -2.9955     2.6486 H       
@<TRIPOS>BOND
   1    1    2 ar
   2    1    6 ar
   3    1    7 1
   4    2    3 ar
   5    2   15 1
   6    3    4 ar
   7    3   45 1
   8    4    5 ar
   9    4   46 1
  10    5    6 ar
  11    5   25 1
  12    6   47 1
  13    7    8 am
  14    7   48 1
  15    8    9 2
  16    8   10 1
  17   10   11 2
  18   10   14 1
  19   11   12 1
  20   11   49 1
  21   12   13 1
  22   13   14 2
  23   13   22 1
  24   15   16 1
  25   15   20 1
  26   16   17 1
  27   16   50 1
  28   16   51 1
  29   17   18 1
  30   17   52 1
  31   17   53 1
  32   18   19 1
  33   18   21 1
  34   19   20 1
  35   19   54 1
  36   19   55 1
  37   20   56 1
  38   20   57 1
  39   21   37 ar
  40   21   41 ar
  41   22   23 1
  42   22   24 1
  43   22   58 1
  44   23   24 1
  45   23   59 1
  46   23   60 1
  47   24   61 1
  48   24   62 1
  49   25   26 am
  50   25   27 2
  51   26   28 1
  52   26   63 1
  53   28   29 1
  54   28   64 1
  55   28   65 1
  56   29   30 1
  57   29   66 1
  58   29   67 1
  59   30   31 1
  60   30   68 1
  61   30   69 1
  62   31   32 am
  63   31   35 1
  64   32   33 1
  65   32   36 2
  66   33   34 1
  67   33   70 1
  68   33   71 1
  69   34   35 1
  70   34   72 1
  71   34   73 1
  72   35   74 1
  73   35   75 1
  74   37   38 ar
  75   38   39 ar
  76   38   76 1
  77   39   40 ar
  78   39   42 1
  79   40   41 ar
  80   40   77 1
  81   41   78 1
  82   42   43 1
  83   42   44 2
  84   43   79 1
  85   43   80 1
  86   43   81 1

#	End of record

