#	Name: ASD01915866
#	Creating user name:	WinNT
#	Creation time:	15. 06. 2019 20:06

#	Modifying user name:	WinNT
#	Modification time:	15. 06. 2019 20:06

#	Program:	/corina/corina34_cracker 3.40 0067  02.08.2006

@<TRIPOS>MOLECULE
ASD01915866
  46   50    0    0    0
SMALL
NO_CHARGES


@<TRIPOS>ATOM
   1 C1            -0.0042     1.4690     0.2359 C.2     
   2 N2             0.0665     0.1199    -0.0302 N.pl3   
   3 C3            -1.1423    -0.6629    -0.3142 C.3     
   4 C4            -2.3278    -0.0488     0.4283 C.3     
   5 N5            -2.4045     1.3987     0.2637 N.am    
   6 C6            -1.2937     2.1744     0.2874 C.2     
   7 C7             1.2761     1.9064     0.4278 C.2     
   8 C8             2.0759     0.7658     0.2749 C.2     
   9 N9             1.2868    -0.2494     0.0109 N.2     
  10 C10            3.5775     0.7141     0.3921 C.3     
  11 O11            4.0775     2.0199     0.6871 O.3     
  12 C12            5.4232     2.1484     0.8260 C.ar    
  13 O13           -1.3594     3.3876     0.3479 O.2     
  14 C14            5.9769     3.3878     1.1127 C.ar    
  15 C15            6.2452     1.0395     0.6870 C.ar    
  16 C16            7.6128     1.1728     0.8286 C.ar    
  17 C17            8.1627     2.4101     1.1086 C.ar    
  18 C18            7.3452     3.5158     1.2533 C.ar    
  19 C19           -3.6548     2.0005     0.0765 C.ar    
  20 C20           -4.5854     1.9994     1.1138 C.ar    
  21 C21           -5.8155     2.5887     0.9351 C.ar    
  22 C22           -6.1358     3.1880    -0.2812 C.ar    
  23 C23           -5.2119     3.1976    -1.3322 C.ar    
  24 C24           -3.9544     2.5945    -1.1306 C.ar    
  25 S25           -7.5917     4.0134    -0.8298 S.3     
  26 C26           -6.8856     4.2968    -2.3572 C.2     
  27 N27           -5.7002     3.8199    -2.4223 N.2     
  28 C28           -7.5724     5.0185    -3.4879 C.3     
  29 H29           -1.3392    -0.6521    -1.3862 H       
  30 H30           -0.9970    -1.6905     0.0191 H       
  31 H31           -3.2484    -0.4952     0.0523 H       
  32 H32           -2.2356    -0.2781     1.4899 H       
  33 H33            1.6010     2.9123     0.6489 H       
  34 H34            3.8561     0.0290     1.1928 H       
  35 H35            4.0036     0.3659    -0.5487 H       
  36 H36            5.3388     4.2518     1.2255 H       
  37 H37            5.8161     0.0727     0.4685 H       
  38 H38            8.2531     0.3097     0.7208 H       
  39 H39            9.2322     2.5122     1.2190 H       
  40 H40            7.7772     4.4813     1.4718 H       
  41 H41           -4.3409     1.5356     2.0580 H       
  42 H42           -6.5354     2.5865     1.7402 H       
  43 H43           -3.2258     2.5904    -1.9277 H       
  44 H44           -8.5708     5.3214    -3.1724 H       
  45 H45           -6.9939     5.9014    -3.7599 H       
  46 H46           -7.6492     4.3549    -4.3491 H       
@<TRIPOS>BOND
   1    1    2 1
   2    1    7 2
   3    1    6 1
   4    2    3 1
   5    2    9 1
   6    3    4 1
   7    3   29 1
   8    3   30 1
   9    4    5 1
  10    4   31 1
  11    4   32 1
  12    5    6 am
  13    5   19 1
  14    6   13 2
  15    7    8 1
  16    7   33 1
  17    8    9 2
  18    8   10 1
  19   10   11 1
  20   10   34 1
  21   10   35 1
  22   11   12 1
  23   12   14 ar
  24   12   15 ar
  25   14   18 ar
  26   14   36 1
  27   15   16 ar
  28   15   37 1
  29   16   17 ar
  30   16   38 1
  31   17   18 ar
  32   17   39 1
  33   18   40 1
  34   19   20 ar
  35   19   24 ar
  36   20   21 ar
  37   20   41 1
  38   21   22 ar
  39   21   42 1
  40   22   23 ar
  41   22   25 1
  42   23   24 ar
  43   23   27 1
  44   24   43 1
  45   25   26 1
  46   26   27 2
  47   26   28 1
  48   28   44 1
  49   28   45 1
  50   28   46 1

#	End of record

