#	Name: ASD01000094
#	Creating user name:	WinNT
#	Creation time:	15. 06. 2019 18:54

#	Modifying user name:	WinNT
#	Modification time:	15. 06. 2019 18:54

#	Program:	/corina/corina34_cracker 3.40 0067  02.08.2006

@<TRIPOS>MOLECULE
ASD01000094
  37   39    0    0    0
SMALL
NO_CHARGES


@<TRIPOS>ATOM
   1 C1            -0.0184     1.5078     0.0103 C.3     
   2 C2             0.0021    -0.0041     0.0020 C.2     
   3 N3             1.2219    -0.4179    -0.0119 N.2     
   4 N4             2.1696     0.6035    -0.0154 N.am    
   5 C5             1.4725     1.8994    -0.0018 C.3     
   6 C6             3.5064     0.4326    -0.0284 C.2     
   7 C7             4.0882    -0.9576    -0.0411 C.3     
   8 O8             4.2414     1.3977    -0.0299 O.2     
   9 C9             1.8262     2.6789     1.2385 C.ar    
  10 C10            1.9709     2.0245     2.4476 C.ar    
  11 C11            2.2950     2.7370     3.5877 C.ar    
  12 C12            2.4749     4.1048     3.5208 C.ar    
  13 C13            2.3306     4.7639     2.3084 C.ar    
  14 C14            2.0111     4.0462     1.1652 C.ar    
  15 O15            2.5067     6.1097     2.2401 O.3     
  16 C16           -1.1904    -0.8711     0.0092 C.ar    
  17 C17           -1.0476    -2.2625     0.0003 C.ar    
  18 C18           -2.1699    -3.0690     0.0071 C.ar    
  19 C19           -3.4316    -2.5034     0.0226 C.ar    
  20 C20           -3.5807    -1.1253     0.0310 C.ar    
  21 C21           -2.4681    -0.3070     0.0307 C.ar    
  22 F22           -4.8173    -0.5814     0.0457 F       
  23 F23            0.1844    -2.8167    -0.0153 F       
  24 H24           -0.5209     1.8882    -0.8790 H       
  25 H25           -0.5038     1.8786     0.9131 H       
  26 H26            1.7112     2.4728    -0.8975 H       
  27 H27            3.2805    -1.6895    -0.0378 H       
  28 H28            4.6944    -1.0895    -0.9374 H       
  29 H29            4.7105    -1.0991     0.8425 H       
  30 H30            1.8303     0.9551     2.5020 H       
  31 H31            2.4071     2.2235     4.5312 H       
  32 H32            2.7272     4.6609     4.4116 H       
  33 H33            1.8982     4.5569     0.2203 H       
  34 H34            3.4164     6.3784     2.0525 H       
  35 H35           -2.0613    -4.1435    -0.0001 H       
  36 H36           -4.3052    -3.1385     0.0278 H       
  37 H37           -2.5858     0.7665     0.0372 H       
@<TRIPOS>BOND
   1    1    2 1
   2    1    5 1
   3    1   24 1
   4    1   25 1
   5    2    3 2
   6    2   16 1
   7    3    4 1
   8    4    5 1
   9    4    6 am
  10    5    9 1
  11    5   26 1
  12    6    7 1
  13    6    8 2
  14    7   27 1
  15    7   28 1
  16    7   29 1
  17    9   10 ar
  18    9   14 ar
  19   10   11 ar
  20   10   30 1
  21   11   12 ar
  22   11   31 1
  23   12   13 ar
  24   12   32 1
  25   13   14 ar
  26   13   15 1
  27   14   33 1
  28   15   34 1
  29   16   17 ar
  30   16   21 ar
  31   17   18 ar
  32   17   23 1
  33   18   19 ar
  34   18   35 1
  35   19   20 ar
  36   19   36 1
  37   20   21 ar
  38   20   22 1
  39   21   37 1

#	End of record

