#	Name: ASD04230176
#	Creating user name:	WinNT
#	Creation time:	15. 06. 2019 20:48

#	Modifying user name:	WinNT
#	Modification time:	15. 06. 2019 20:48

#	Program:	/corina/corina34_cracker 3.40 0067  02.08.2006

@<TRIPOS>MOLECULE
ASD04230176
  47   50    0    0    0
SMALL
NO_CHARGES


@<TRIPOS>ATOM
   1 C1             0.0761     1.3672     0.8450 C.2     
   2 C2             0.0730    -0.0862     0.6254 C.ar    
   3 C3            -1.1600    -0.7671     0.5504 C.ar    
   4 C4            -2.3850    -0.0734     0.6826 C.ar    
   5 C5            -2.3993     1.3252     0.8939 C.2     
   6 C6            -1.2135     2.0537     0.9844 C.2     
   7 C7             1.2657    -0.7972     0.4913 C.ar    
   8 C8             1.2426    -2.1645     0.2856 C.ar    
   9 C9             0.0459    -2.8499     0.2090 C.ar    
  10 C10           -1.1652    -2.1649     0.3391 C.ar    
  11 C11           -2.4480    -2.8616     0.2637 C.ar    
  12 C12           -3.6268    -2.1270     0.4011 C.ar    
  13 C13           -3.5978    -0.7803     0.6027 C.ar    
  14 O14            1.1244     1.9866     0.9148 O.2     
  15 S15           -2.5053    -4.6032     0.0026 S.3     
  16 C16           -4.2373    -4.8807     0.1688 C.ar    
  17 C17           -5.0531    -4.8790    -0.9564 C.ar    
  18 C18           -6.4098    -5.0970    -0.8250 C.ar    
  19 C19           -6.9593    -5.3172     0.4301 C.ar    
  20 C20           -6.1458    -5.3191     1.5542 C.ar    
  21 C21           -4.7880    -5.1070     1.4247 C.ar    
  22 O22           -8.2958    -5.5309     0.5584 O.3     
  23 C23           -8.7937    -5.7507     1.8797 C.3     
  24 C24           -1.2545     3.4690     1.1987 C.1     
  25 N25           -1.2870     4.5917     1.3687 N.1     
  26 C26           -3.6951     2.0265     1.0285 C.2     
  27 O27           -4.2038     2.1574     2.1233 O.2     
  28 O28           -4.3105     2.5198    -0.0635 O.3     
  29 C29           -5.5788     3.1958     0.1434 C.3     
  30 C30           -6.1219     3.6840    -1.2011 C.3     
  31 H31            2.2109    -0.2777     0.5481 H       
  32 H32            2.1728    -2.7036     0.1830 H       
  33 H33            0.0462    -3.9178     0.0475 H       
  34 H34           -4.5782    -2.6351     0.3465 H       
  35 H35           -4.5289    -0.2427     0.7053 H       
  36 H36           -4.6257    -4.7069    -1.9332 H       
  37 H37           -7.0438    -5.0958    -1.6992 H       
  38 H38           -6.5746    -5.4906     2.5305 H       
  39 H39           -4.1551    -5.1085     2.2998 H       
  40 H40           -8.3140    -6.6313     2.3069 H       
  41 H41           -8.5753    -4.8812     2.4996 H       
  42 H42           -9.8717    -5.9073     1.8403 H       
  43 H43           -6.2905     2.5034     0.5930 H       
  44 H44           -5.4322     4.0480     0.8071 H       
  45 H45           -5.4102     4.3764    -1.6506 H       
  46 H46           -6.2685     2.8318    -1.8647 H       
  47 H47           -7.0740     4.1915    -1.0457 H       
@<TRIPOS>BOND
   1    1    2 1
   2    1   14 2
   3    1    6 1
   4    2    3 ar
   5    2    7 ar
   6    3    4 ar
   7    3   10 ar
   8    4    5 1
   9    4   13 ar
  10    5    6 2
  11    5   26 1
  12    6   24 1
  13    7    8 ar
  14    7   31 1
  15    8    9 ar
  16    8   32 1
  17    9   10 ar
  18    9   33 1
  19   10   11 ar
  20   11   12 ar
  21   11   15 1
  22   12   13 ar
  23   12   34 1
  24   13   35 1
  25   15   16 1
  26   16   17 ar
  27   16   21 ar
  28   17   18 ar
  29   17   36 1
  30   18   19 ar
  31   18   37 1
  32   19   20 ar
  33   19   22 1
  34   20   21 ar
  35   20   38 1
  36   21   39 1
  37   22   23 1
  38   23   40 1
  39   23   41 1
  40   23   42 1
  41   24   25 3
  42   26   27 2
  43   26   28 1
  44   28   29 1
  45   29   30 1
  46   29   43 1
  47   29   44 1
  48   30   45 1
  49   30   46 1
  50   30   47 1

#	End of record

