#	Name: ASD09080100
#	Creating user name:	WinNT
#	Creation time:	15. 06. 2019 21:20

#	Modifying user name:	WinNT
#	Modification time:	15. 06. 2019 21:20

#	Program:	/corina/corina34_cracker 3.40 0067  02.08.2006

@<TRIPOS>MOLECULE
ASD09080100
  42   42    0    0    0
SMALL
NO_CHARGES


@<TRIPOS>ATOM
   1 C1            -0.0167     1.3790     0.0096 C.ar    
   2 C2             0.0021    -0.0041     0.0020 C.ar    
   3 C3            -1.1855    -0.7112     0.0100 C.ar    
   4 C4            -2.3919    -0.0363     0.0257 C.ar    
   5 C5            -2.4112     1.3459     0.0333 C.ar    
   6 C6            -1.2240     2.0538     0.0306 C.ar    
   7 Br7            1.6078     2.3470    -0.0007 Br      
   8 C8            -3.6865    -0.8078     0.0339 C.3     
   9 C9            -4.1105    -1.0770     1.4791 C.3     
  10 N10           -3.1305    -1.9577     2.1195 N.am    
  11 O11           -2.0833    -2.7509     4.0478 O.3     
  12 C12           -1.9797    -2.6801     5.4944 C.3     
  13 C13           -3.3281    -3.0414     6.1206 C.3     
  14 C14           -0.9127    -3.6643     5.9779 C.3     
  15 C15           -1.5890    -1.2601     5.9088 C.3     
  16 C16           -2.9840    -1.9415     3.4592 C.2     
  17 O17           -3.6648    -1.1964     4.1358 O.2     
  18 C18           -5.4641    -1.7395     1.4903 C.2     
  19 O19           -5.5965    -2.8348     1.9828 O.2     
  20 O20           -6.5225    -1.1126     0.9533 O.3     
  21 O21           -7.6268    -1.7180     0.9934 O.3     
  22 C22           -8.7086    -0.9935     0.4045 C.3     
  23 H23            0.9445    -0.5314    -0.0105 H       
  24 H24           -1.1710    -1.7911     0.0037 H       
  25 H25           -3.3539     1.8727     0.0455 H       
  26 H26           -1.2391     3.1337     0.0365 H       
  27 H27           -4.4591    -0.2263    -0.4691 H       
  28 H28           -3.5481    -1.7553    -0.4867 H       
  29 H29           -4.1628    -0.1345     2.0241 H       
  30 H30           -2.5870    -2.5525     1.5794 H       
  31 H31           -3.6064    -4.0530     5.8253 H       
  32 H32           -3.2502    -2.9883     7.2065 H       
  33 H33           -4.0882    -2.3402     5.7761 H       
  34 H34            0.0479    -3.4069     5.5318 H       
  35 H35           -0.8349    -3.6112     7.0639 H       
  36 H36           -1.1910    -4.6760     5.6827 H       
  37 H37           -2.3491    -0.5589     5.5643 H       
  38 H38           -1.5111    -1.2070     6.9947 H       
  39 H39           -0.6283    -1.0027     5.4627 H       
  40 H40           -8.8411    -0.0477     0.9299 H       
  41 H41           -8.4867    -0.7984    -0.6447 H       
  42 H42           -9.6232    -1.5817     0.4792 H       
@<TRIPOS>BOND
   1    1    2 ar
   2    1    7 1
   3    1    6 ar
   4    2    3 ar
   5    2   23 1
   6    3    4 ar
   7    3   24 1
   8    4    5 ar
   9    4    8 1
  10    5    6 ar
  11    5   25 1
  12    6   26 1
  13    8    9 1
  14    8   27 1
  15    8   28 1
  16    9   10 1
  17    9   18 1
  18    9   29 1
  19   10   16 am
  20   10   30 1
  21   11   12 1
  22   11   16 1
  23   12   13 1
  24   12   14 1
  25   12   15 1
  26   13   31 1
  27   13   32 1
  28   13   33 1
  29   14   34 1
  30   14   35 1
  31   14   36 1
  32   15   37 1
  33   15   38 1
  34   15   39 1
  35   16   17 2
  36   18   19 2
  37   18   20 1
  38   20   21 1
  39   21   22 1
  40   22   40 1
  41   22   41 1
  42   22   42 1

#	End of record

