#	Name: ASD08070156
#	Creating user name:	WinNT
#	Creation time:	15. 06. 2019 21:14

#	Modifying user name:	WinNT
#	Modification time:	15. 06. 2019 21:14

#	Program:	/corina/corina34_cracker 3.40 0067  02.08.2006

@<TRIPOS>MOLECULE
ASD08070156
  42   44    0    0    0
SMALL
NO_CHARGES


@<TRIPOS>ATOM
   1 C1            -0.0167     1.3794     0.0096 C.ar    
   2 C2             0.0021    -0.0041     0.0020 C.ar    
   3 C3             1.2061    -0.6856    -0.0132 C.ar    
   4 C4             2.3966     0.0113    -0.0204 C.ar    
   5 C5             2.3848     1.4070    -0.0128 C.ar    
   6 C6             1.1667     2.0884     0.0021 C.ar    
   7 N7             4.2475     2.4974     1.1432 N.am    
   8 C8             3.6569     2.1603    -0.0205 C.2     
   9 C9             6.5149     1.2320     0.0937 C.ar    
  10 C10            6.6560     2.2787     0.9959 C.ar    
  11 C11            5.5080     3.2439     1.1356 C.3     
  12 C12            7.5329     0.3187    -0.0852 C.ar    
  13 C13            8.7047     0.4465     0.6375 C.ar    
  14 C14            8.8463     1.4845     1.5348 C.ar    
  15 C15            7.8205     2.4028     1.7195 C.ar    
  16 C16            8.0360     3.5021     2.7265 C.3     
  17 C17            7.0399     4.6381     2.5032 C.3     
  18 C18            5.6302     4.0392     2.4338 C.3     
  19 O19            4.1701     2.4756    -1.0762 O.2     
  20 C20            1.1444     3.5952     0.0099 C.3     
  21 C21            3.7071    -0.7327    -0.0360 C.3     
  22 H22           -0.9599     1.9054     0.0170 H       
  23 H23           -0.9272    -0.5544     0.0083 H       
  24 H24            1.2138    -1.7656    -0.0191 H       
  25 H25            3.8379     2.2457     1.9857 H       
  26 H26            5.5988     1.1299    -0.4692 H       
  27 H27            5.5127     3.9327     0.2909 H       
  28 H28            7.4151    -0.4936    -0.7871 H       
  29 H29            9.5062    -0.2642     0.5002 H       
  30 H30            9.7621     1.5839     2.0985 H       
  31 H31            7.9036     3.1003     3.7310 H       
  32 H32            9.0503     3.8883     2.6254 H       
  33 H33            7.0980     5.3452     3.3307 H       
  34 H34            7.2686     5.1481     1.5673 H       
  35 H35            4.8904     4.8395     2.4450 H       
  36 H36            5.4698     3.3784     3.2857 H       
  37 H37            1.1293     3.9636    -1.0158 H       
  38 H38            0.2540     3.9426     0.5339 H       
  39 H39            2.0337     3.9691     0.5173 H       
  40 H40            4.0138    -0.9069    -1.0673 H       
  41 H41            4.4671    -0.1408     0.4740 H       
  42 H42            3.5883    -1.6887     0.4741 H       
@<TRIPOS>BOND
   1    1    2 ar
   2    1    6 ar
   3    1   22 1
   4    2    3 ar
   5    2   23 1
   6    3    4 ar
   7    3   24 1
   8    4    5 ar
   9    4   21 1
  10    5    6 ar
  11    5    8 1
  12    6   20 1
  13    7    8 am
  14    7   11 1
  15    7   25 1
  16    8   19 2
  17    9   10 ar
  18    9   12 ar
  19    9   26 1
  20   10   11 1
  21   10   15 ar
  22   11   18 1
  23   11   27 1
  24   12   13 ar
  25   12   28 1
  26   13   14 ar
  27   13   29 1
  28   14   15 ar
  29   14   30 1
  30   15   16 1
  31   16   17 1
  32   16   31 1
  33   16   32 1
  34   17   18 1
  35   17   33 1
  36   17   34 1
  37   18   35 1
  38   18   36 1
  39   20   37 1
  40   20   38 1
  41   20   39 1
  42   21   40 1
  43   21   41 1
  44   21   42 1

#	End of record

