#	Name: ASD03730069
#	Creating user name:	WinNT
#	Creation time:	15. 06. 2019 20:43

#	Modifying user name:	WinNT
#	Modification time:	15. 06. 2019 20:43

#	Program:	/corina/corina34_cracker 3.40 0067  02.08.2006

@<TRIPOS>MOLECULE
ASD03730069
  52   57    0    0    0
SMALL
NO_CHARGES


@<TRIPOS>ATOM
   1 C1            -0.0187     1.5021     0.0185 C.2     
   2 C2             0.0011    -0.0045    -0.0114 C.3     
   3 O3             1.0236     2.1220     0.0366 O.2     
   4 N4            -1.1946     2.1607     0.0195 N.am    
   5 O5             6.2140     2.8436     2.2199 O.3     
   6 C6             7.6309     2.7831     2.4688 C.3     
   7 O7             7.8351     1.4458     2.9615 O.3     
   8 C8             6.8315     0.6976     2.4156 C.ar    
   9 C9             5.8346     1.5577     1.9606 C.ar    
  10 C10            6.6862    -0.6700     2.2667 C.ar    
  11 C11            5.5470    -1.1966     1.6655 C.ar    
  12 C12            4.5542    -0.3279     1.2225 C.ar    
  13 C13            4.6990     1.0365     1.3639 C.ar    
  14 O14            5.2176    -2.4951     1.4090 O.3     
  15 C15            3.4558    -1.1859     0.6540 C.3     
  16 C16            3.7991    -2.5881     1.1750 C.3     
  17 N17            1.3886    -0.4747    -0.0131 N.am    
  18 C18            2.0949    -0.7389     1.1042 C.2     
  19 C19            3.4137    -1.1406    -0.8447 C.ar    
  20 C20            4.3300    -1.4290    -1.8314 C.ar    
  21 C21            3.9827    -1.2857    -3.1629 C.ar    
  22 C22            2.7137    -0.8515    -3.5003 C.ar    
  23 C23            1.7927    -0.5604    -2.5157 C.ar    
  24 C24            2.1334    -0.7022    -1.1727 C.ar    
  25 O25            1.7070    -0.6362     2.2488 O.2     
  26 C26           -1.2153     3.5564     0.1329 C.ar    
  27 C27           -2.3326     4.1965     0.6587 C.ar    
  28 C28           -2.3489     5.5747     0.7689 C.ar    
  29 C29           -1.2559     6.3153     0.3567 C.ar    
  30 C30           -0.1445     5.6810    -0.1662 C.ar    
  31 C31           -0.1190     4.3036    -0.2739 C.ar    
  32 C32           -1.2769     7.8173     0.4775 C.3     
  33 F33           -3.4003     3.4729     1.0609 F       
  34 H34           -0.5129    -0.3921     0.8682 H       
  35 H35           -0.5030    -0.3567    -0.9114 H       
  36 H36           -2.0265     1.6680    -0.0584 H       
  37 H37            8.1889     2.9406     1.5458 H       
  38 H38            7.9191     3.5168     3.2216 H       
  39 H39            7.4619    -1.3334     2.6195 H       
  40 H40            3.9244     1.7000     1.0086 H       
  41 H41            3.5798    -3.3453     0.4222 H       
  42 H42            3.2666    -2.7974     2.1028 H       
  43 H43            5.3205    -1.7678    -1.5656 H       
  44 H44            4.7008    -1.5126    -3.9370 H       
  45 H45            2.4427    -0.7395    -4.5398 H       
  46 H46            0.8039    -0.2213    -2.7871 H       
  47 H47           -3.2158     6.0733     1.1767 H       
  48 H48            0.7070     6.2627    -0.4870 H       
  49 H49            0.7519     3.8092    -0.6783 H       
  50 H50           -0.8788     8.1092     1.4494 H       
  51 H51           -0.6649     8.2539    -0.3117 H       
  52 H52           -2.3020     8.1752     0.3824 H       
@<TRIPOS>BOND
   1    1    2 1
   2    1    3 2
   3    1    4 am
   4    2   17 1
   5    2   34 1
   6    2   35 1
   7    4   26 1
   8    4   36 1
   9    5    6 1
  10    5    9 1
  11    6    7 1
  12    6   37 1
  13    6   38 1
  14    7    8 1
  15    8    9 ar
  16    8   10 ar
  17    9   13 ar
  18   10   11 ar
  19   10   39 1
  20   11   12 ar
  21   11   14 1
  22   12   13 ar
  23   12   15 1
  24   13   40 1
  25   14   16 1
  26   15   16 1
  27   15   18 1
  28   15   19 1
  29   16   41 1
  30   16   42 1
  31   17   18 am
  32   17   24 1
  33   18   25 2
  34   19   20 ar
  35   19   24 ar
  36   20   21 ar
  37   20   43 1
  38   21   22 ar
  39   21   44 1
  40   22   23 ar
  41   22   45 1
  42   23   24 ar
  43   23   46 1
  44   26   27 ar
  45   26   31 ar
  46   27   28 ar
  47   27   33 1
  48   28   29 ar
  49   28   47 1
  50   29   30 ar
  51   29   32 1
  52   30   31 ar
  53   30   48 1
  54   31   49 1
  55   32   50 1
  56   32   51 1
  57   32   52 1

#	End of record

