#	Name: ASD01912879
#	Creating user name:	WinNT
#	Creation time:	15. 06. 2019 20:00

#	Modifying user name:	WinNT
#	Modification time:	15. 06. 2019 20:00

#	Program:	/corina/corina34_cracker 3.40 0067  02.08.2006

@<TRIPOS>MOLECULE
ASD01912879
  39   42    0    0    0
SMALL
NO_CHARGES


@<TRIPOS>ATOM
   1 C1            -0.0165     1.3668     0.0096 C.2     
   2 N2             0.0021    -0.0041     0.0020 N.pl3   
   3 C3            -1.2020    -0.6916     0.0094 C.2     
   4 C4            -2.3630    -0.0488     0.0231 C.2     
   5 N5            -2.4358     1.3304     0.0307 N.am    
   6 C6            -1.3020     2.0666     0.0309 C.2     
   7 C7             1.3016     1.7836    -0.0008 C.2     
   8 C8             2.0550     0.6112    -0.0143 C.2     
   9 N9             1.2243    -0.4045    -0.0118 N.2     
  10 O10           -1.3491     3.2837     0.0376 O.2     
  11 C11           -3.6890     1.9686     0.0448 C.2     
  12 C12            3.5595     0.5251    -0.0295 C.3     
  13 O13            4.1120     1.8429    -0.0282 O.3     
  14 C14            5.4672     1.9437    -0.0410 C.ar    
  15 C15            6.0711     3.1927    -0.0405 C.ar    
  16 C16            7.4489     3.2925    -0.0536 C.ar    
  17 C17            8.2259     2.1489    -0.0672 C.ar    
  18 C18            7.6265     0.9030    -0.0682 C.ar    
  19 C19            6.2492     0.7978    -0.0489 C.ar    
  20 C20           -4.4158     2.3386     1.1866 C.2     
  21 N21           -5.5286     2.9054     0.7969 N.2     
  22 N22           -5.5508     2.9170    -0.6035 N.pl3   
  23 C23           -4.4092     2.3423    -1.0444 C.2     
  24 C24           -4.0123     2.1428    -2.4844 C.3     
  25 H25           -1.1949    -1.7716     0.0035 H       
  26 H26           -3.2786    -0.6215     0.0281 H       
  27 H27            1.6685     2.7994     0.0008 H       
  28 H28            3.9016    -0.0133     0.8543 H       
  29 H29            3.8841    -0.0041    -0.9255 H       
  30 H30            5.4646     4.0863    -0.0302 H       
  31 H31            7.9195     4.2646    -0.0536 H       
  32 H32            9.3029     2.2291    -0.0775 H       
  33 H33            8.2356     0.0112    -0.0796 H       
  34 H34            5.7814    -0.1757    -0.0497 H       
  35 H35           -4.1095     2.1824     2.2104 H       
  36 H36           -6.2592     3.2775    -1.1594 H       
  37 H37           -3.4548     3.0128    -2.8315 H       
  38 H38           -3.3877     1.2536    -2.5693 H       
  39 H39           -4.9072     2.0179    -3.0940 H       
@<TRIPOS>BOND
   1    1    2 1
   2    1    7 2
   3    1    6 1
   4    2    3 1
   5    2    9 1
   6    3    4 2
   7    3   25 1
   8    4    5 1
   9    4   26 1
  10    5    6 am
  11    5   11 1
  12    6   10 2
  13    7    8 1
  14    7   27 1
  15    8    9 2
  16    8   12 1
  17   11   20 1
  18   11   23 2
  19   12   13 1
  20   12   28 1
  21   12   29 1
  22   13   14 1
  23   14   15 ar
  24   14   19 ar
  25   15   16 ar
  26   15   30 1
  27   16   17 ar
  28   16   31 1
  29   17   18 ar
  30   17   32 1
  31   18   19 ar
  32   18   33 1
  33   19   34 1
  34   20   21 2
  35   20   35 1
  36   21   22 1
  37   22   23 1
  38   22   36 1
  39   23   24 1
  40   24   37 1
  41   24   38 1
  42   24   39 1

#	End of record

