#	Name: ASD01410358
#	Creating user name:	WinNT
#	Creation time:	15. 06. 2019 19:17

#	Modifying user name:	WinNT
#	Modification time:	15. 06. 2019 19:17

#	Program:	/corina/corina34_cracker 3.40 0067  02.08.2006

@<TRIPOS>MOLECULE
ASD01410358
  77   82    0    0    0
SMALL
NO_CHARGES


@<TRIPOS>ATOM
   1 N1             0.0813     1.5574     0.4246 N.pl3   
   2 C2             0.1225     0.1911     0.5696 C.2     
   3 C3            -1.1435    -0.2892     0.6643 C.2     
   4 C4            -2.0313     0.8098     0.5768 C.ar    
   5 C5            -1.2369     1.9654     0.4314 C.ar    
   6 C6            -3.4290     0.9210     0.6126 C.ar    
   7 C7            -4.0181     2.1427     0.5012 C.ar    
   8 C8            -3.2359     3.2978     0.3507 C.ar    
   9 C9            -1.8452     3.2057     0.3201 C.ar    
  10 C10           -2.3200    -1.9033     2.1338 C.3     
  11 C11           -2.7167    -3.3712     2.3039 C.3     
  12 C12           -3.5877    -3.8042     1.1229 C.3     
  13 C13           -2.8020    -3.6358    -0.1791 C.3     
  14 C14           -2.4052    -2.1680    -0.3492 C.3     
  15 C15           -1.5342    -1.7350     0.8318 C.3     
  16 C16            1.2456     2.4365     0.2911 C.3     
  17 C17            1.5972     2.5866    -1.1665 C.2     
  18 O18            0.9400     2.0155    -2.0108 O.2     
  19 C19            2.9972     3.5116    -2.9491 C.3     
  20 N20            2.6421     3.3555    -1.5320 N.am    
  21 C21            3.4474     4.0540    -0.5209 C.3     
  22 C22            4.4761     3.1552    -3.1290 C.3     
  23 C23            4.9213     3.6915    -0.7280 C.3     
  24 C24            5.3204     4.0007    -2.1727 C.3     
  25 C25            8.6354     4.4897    -3.6557 C.3     
  26 C26            7.1747     4.0099    -3.7425 C.3     
  27 N27            6.7421     3.6854    -2.3659 N.3     
  28 C28            7.5959     4.5058    -1.4691 C.3     
  29 C29            8.9861     4.4458    -2.1506 C.3     
  30 C30            3.6581    -2.1599     0.6991 C.ar    
  31 C31            3.5250    -1.1681    -0.2564 C.ar    
  32 C32            2.3794    -0.4009    -0.3038 C.ar    
  33 C33            1.3532    -0.6274     0.6146 C.ar    
  34 C34            1.4937    -1.6294     1.5759 C.ar    
  35 C35            2.6447    -2.3891     1.6127 C.ar    
  36 C36           -3.8871     4.6148     0.2313 C.2     
  37 O37           -3.2121     5.6168     0.1008 O.2     
  38 O38           -5.2311     4.7077     0.2667 O.3     
  39 H39           -4.0380     0.0366     0.7281 H       
  40 H40           -5.0948     2.2236     0.5285 H       
  41 H41           -1.2449     4.0960     0.2046 H       
  42 H42           -3.2177    -1.2860     2.0988 H       
  43 H43           -1.6994    -1.5949     2.9751 H       
  44 H44           -1.8190    -3.9885     2.3388 H       
  45 H45           -3.2765    -3.4911     3.2314 H       
  46 H46           -3.8704    -4.8499     1.2440 H       
  47 H47           -4.4854    -3.1869     1.0879 H       
  48 H48           -1.9043    -4.2531    -0.1441 H       
  49 H49           -3.4225    -3.9443    -1.0205 H       
  50 H50           -1.8455    -2.0480    -1.2767 H       
  51 H51           -3.3029    -1.5507    -0.3841 H       
  52 H52           -0.6365    -2.3523     0.8668 H       
  53 H53            1.0123     3.4148     0.7112 H       
  54 H54            2.0909     2.0036     0.8261 H       
  55 H55            2.3842     2.8443    -3.5551 H       
  56 H56            2.8301     4.5441    -3.2561 H       
  57 H57            3.3170     5.1306    -0.6298 H       
  58 H58            3.1315     3.7445     0.4754 H       
  59 H59            4.6251     2.0983    -2.9083 H       
  60 H60            4.7770     3.3587    -4.1567 H       
  61 H61            5.5390     4.2767    -0.0467 H       
  62 H62            5.0661     2.6295    -0.5299 H       
  63 H63            5.1521     5.0579    -2.3776 H       
  64 H64            9.2876     3.8197    -4.2158 H       
  65 H65            8.7222     5.5080    -4.0348 H       
  66 H66            6.5474     4.8017    -4.1519 H       
  67 H67            7.1125     3.1211    -4.3704 H       
  68 H68            7.2328     5.5326    -1.4256 H       
  69 H69            7.6374     4.0686    -0.4715 H       
  70 H70            9.4983     3.5167    -1.9009 H       
  71 H71            9.5907     5.3083    -1.8702 H       
  72 H72            4.5551    -2.7606     0.7291 H       
  73 H73            4.3199    -0.9939    -0.9665 H       
  74 H74            2.2768     0.3731    -1.0499 H       
  75 H75            0.7033    -1.8096     2.2894 H       
  76 H76            2.7547    -3.1648     2.3561 H       
  77 H77           -5.6124     5.5926     0.1845 H       
@<TRIPOS>BOND
   1    1    2 1
   2    1   16 1
   3    1    5 1
   4    2    3 2
   5    2   33 1
   6    3    4 1
   7    3   15 1
   8    4    5 ar
   9    4    6 ar
  10    5    9 ar
  11    6    7 ar
  12    6   39 1
  13    7    8 ar
  14    7   40 1
  15    8    9 ar
  16    8   36 1
  17    9   41 1
  18   10   11 1
  19   10   15 1
  20   10   42 1
  21   10   43 1
  22   11   12 1
  23   11   44 1
  24   11   45 1
  25   12   13 1
  26   12   46 1
  27   12   47 1
  28   13   14 1
  29   13   48 1
  30   13   49 1
  31   14   15 1
  32   14   50 1
  33   14   51 1
  34   15   52 1
  35   16   17 1
  36   16   53 1
  37   16   54 1
  38   17   18 2
  39   17   20 am
  40   19   20 1
  41   19   22 1
  42   19   55 1
  43   19   56 1
  44   20   21 1
  45   21   23 1
  46   21   57 1
  47   21   58 1
  48   22   24 1
  49   22   59 1
  50   22   60 1
  51   23   24 1
  52   23   61 1
  53   23   62 1
  54   24   27 1
  55   24   63 1
  56   25   26 1
  57   25   29 1
  58   25   64 1
  59   25   65 1
  60   26   27 1
  61   26   66 1
  62   26   67 1
  63   27   28 1
  64   28   29 1
  65   28   68 1
  66   28   69 1
  67   29   70 1
  68   29   71 1
  69   30   31 ar
  70   30   35 ar
  71   30   72 1
  72   31   32 ar
  73   31   73 1
  74   32   33 ar
  75   32   74 1
  76   33   34 ar
  77   34   35 ar
  78   34   75 1
  79   35   76 1
  80   36   37 2
  81   36   38 1
  82   38   77 1

#	End of record

