#	Name: ASD02500900
#	Creating user name:	WinNT
#	Creation time:	15. 06. 2019 20:23

#	Modifying user name:	WinNT
#	Modification time:	15. 06. 2019 20:23

#	Program:	/corina/corina34_cracker 3.40 0067  02.08.2006

@<TRIPOS>MOLECULE
ASD02500900
  51   53    0    0    0
SMALL
NO_CHARGES


@<TRIPOS>ATOM
   1 C1             4.3221     4.5885     0.9499 C.2     
   2 C2             5.6005     4.3290     0.4195 C.2     
   3 C3             6.4609     5.4630     0.0448 C.ar    
   4 C4             6.0440     6.7431     0.4622 C.ar    
   5 O5             4.9210     6.9092     1.1988 O.3     
   6 C6             3.9169     6.0065     1.1088 C.2     
   7 C7             7.6311     5.3016    -0.6877 C.ar    
   8 C8             8.3849     6.4089    -1.0172 C.ar    
   9 C9             7.9740     7.6720    -0.6198 C.ar    
  10 C10            6.8174     7.8427     0.1116 C.ar    
  11 C11            3.6227     3.4396     1.2550 C.2     
  12 C12            4.2929     2.2973     0.9907 C.2     
  13 S13            5.8790     2.6624     0.3258 S.3     
  14 C14            3.7722     0.9458     1.2247 C.2     
  15 N15            4.4565    -0.1265     0.7793 N.am    
  16 O16            2.7225     0.7930     1.8210 O.2     
  17 O17            2.7473     6.3390     1.1517 O.2     
  18 C18            9.6564     6.2455    -1.8095 C.3     
  19 C19            4.0020    -1.4776     1.1173 C.3     
  20 C20            5.6546     0.0590    -0.0430 C.3     
  21 C21            6.9003    -0.0524     0.8383 C.3     
  22 C22            8.1358     0.3440     0.0276 C.3     
  23 C23            6.7588     0.8817     2.0418 C.3     
  24 C24            3.1525    -2.0315    -0.0282 C.3     
  25 C25            2.7980    -3.4918     0.2595 C.3     
  26 C26            1.8678    -1.2101    -0.1538 C.3     
  27 H27            7.9480     4.3163    -0.9963 H       
  28 H28            8.5680     8.5338    -0.8862 H       
  29 H29            6.5117     8.8340     0.4122 H       
  30 H30            2.6255     3.4523     1.6697 H       
  31 H31            9.4316     6.3078    -2.8743 H       
  32 H32           10.3570     7.0355    -1.5393 H       
  33 H33           10.1002     5.2749    -1.5881 H       
  34 H34            4.8663    -2.1231     1.2738 H       
  35 H35            3.4049    -1.4427     2.0286 H       
  36 H36            5.6869    -0.7084    -0.8164 H       
  37 H37            5.6264     1.0438    -0.5093 H       
  38 H38            7.0084    -1.0797     1.1864 H       
  39 H39            8.0278     1.3712    -0.3205 H       
  40 H40            9.0233     0.2646     0.6555 H       
  41 H41            8.2366    -0.3215    -0.8298 H       
  42 H42            5.7210     0.8900     2.3752 H       
  43 H43            7.3978     0.5300     2.8518 H       
  44 H44            7.0567     1.8904     1.7558 H       
  45 H45            3.7149    -1.9709    -0.9599 H       
  46 H46            2.2355    -3.5523     1.1912 H       
  47 H47            2.1928    -3.8864    -0.5566 H       
  48 H48            3.7133    -4.0770     0.3490 H       
  49 H49            1.2159    -1.6667    -0.8985 H       
  50 H50            1.3574    -1.1844     0.8090 H       
  51 H51            2.1148    -0.1939    -0.4613 H       
@<TRIPOS>BOND
   1    1    2 2
   2    1   11 1
   3    1    6 1
   4    2    3 1
   5    2   13 1
   6    3    4 ar
   7    3    7 ar
   8    4    5 1
   9    4   10 ar
  10    5    6 1
  11    6   17 2
  12    7    8 ar
  13    7   27 1
  14    8    9 ar
  15    8   18 1
  16    9   10 ar
  17    9   28 1
  18   10   29 1
  19   11   12 2
  20   11   30 1
  21   12   13 1
  22   12   14 1
  23   14   15 am
  24   14   16 2
  25   15   19 1
  26   15   20 1
  27   18   31 1
  28   18   32 1
  29   18   33 1
  30   19   24 1
  31   19   34 1
  32   19   35 1
  33   20   21 1
  34   20   36 1
  35   20   37 1
  36   21   22 1
  37   21   23 1
  38   21   38 1
  39   22   39 1
  40   22   40 1
  41   22   41 1
  42   23   42 1
  43   23   43 1
  44   23   44 1
  45   24   25 1
  46   24   26 1
  47   24   45 1
  48   25   46 1
  49   25   47 1
  50   25   48 1
  51   26   49 1
  52   26   50 1
  53   26   51 1

#	End of record

