#	Name: ASD03540589
#	Creating user name:	WinNT
#	Creation time:	15. 06. 2019 20:43

#	Modifying user name:	WinNT
#	Modification time:	15. 06. 2019 20:43

#	Program:	/corina/corina34_cracker 3.40 0067  02.08.2006

@<TRIPOS>MOLECULE
ASD03540589
  63   67    0    0    0
SMALL
NO_CHARGES


@<TRIPOS>ATOM
   1 C1            -0.0184     1.5028     0.0103 C.2     
   2 C2             0.0021    -0.0041     0.0020 C.3     
   3 O3             1.0197     2.1211     0.0037 O.2     
   4 O4            -1.1898     2.1580     0.0194 O.3     
   5 C5             1.4295    -0.4870    -0.0142 C.ar    
   6 C6             2.0956    -0.7149     1.1754 C.ar    
   7 C7             3.4050    -1.1579     1.1606 C.ar    
   8 C8             4.0481    -1.3733    -0.0440 C.ar    
   9 C9             3.3817    -1.1463    -1.2336 C.ar    
  10 C10            2.0709    -0.7075    -1.2187 C.ar    
  11 C11            5.4759    -1.8553    -0.0602 C.3     
  12 N12            5.5140    -5.3593    -1.3261 N.pl3   
  13 C13            5.4947    -3.9955    -1.2730 C.2     
  14 N14            5.4968    -3.3201    -0.0672 N.am    
  15 C15            5.5182    -3.9904     1.1036 C.2     
  16 C16            5.5395    -5.4650     1.0789 C.ar    
  17 C17            5.5626    -6.2047     2.2556 C.ar    
  18 C18            5.5827    -7.5965     2.1910 C.ar    
  19 C19            5.5795    -8.2400     0.9479 C.ar    
  20 C20            5.5567    -7.5070    -0.2171 C.ar    
  21 C21            5.5366    -6.1190    -0.1662 C.ar    
  22 N22            5.4828    -4.5676    -3.3233 N.2     
  23 N23            5.4762    -3.5676    -2.5160 N.2     
  24 C24            5.5112    -5.6858    -2.6525 C.2     
  25 O25            5.5203    -3.3892     2.1609 O.2     
  26 C26            5.6078    -8.3930     3.4347 C.2     
  27 N27            5.6272    -9.7392     3.3725 N.am    
  28 O28            5.6109    -7.8343     4.5144 O.2     
  29 C29            5.6521   -10.5292     4.6060 C.3     
  30 C30            5.6704   -11.9964     4.2625 C.ar    
  31 C31            6.8766   -12.6505     4.0925 C.ar    
  32 C32            6.8961   -13.9954     3.7776 C.ar    
  33 C33            5.7039   -14.6898     3.6320 C.ar    
  34 C34            4.4949   -14.0313     3.8031 C.ar    
  35 C35            4.4810   -12.6876     4.1235 C.ar    
  36 O36            5.7204   -16.0129     3.3218 O.3     
  37 C37            4.4552   -16.6635     3.1875 C.3     
  38 C38           -1.1335     3.6089     0.0270 C.3     
  39 H39           -0.4983    -0.3791     0.8948 H       
  40 H40           -0.5153    -0.3696    -0.8850 H       
  41 H41            1.5932    -0.5466     2.1165 H       
  42 H42            3.9256    -1.3353     2.0900 H       
  43 H43            3.8843    -1.3143    -2.1747 H       
  44 H44            1.5491    -0.5336    -2.1482 H       
  45 H45            5.9757    -1.4805    -0.9534 H       
  46 H46            5.9932    -1.4888     0.8265 H       
  47 H47            5.5653    -5.7044     3.2127 H       
  48 H48            5.5955    -9.3190     0.9025 H       
  49 H49            5.5549    -8.0118    -1.1719 H       
  50 H50            5.5231    -6.6827    -3.0677 H       
  51 H51            5.6247   -10.1850     2.5110 H       
  52 H52            6.5446   -10.2792     5.1796 H       
  53 H53            4.7650   -10.3058     5.1985 H       
  54 H54            7.8044   -12.1094     4.2056 H       
  55 H55            7.8385   -14.5058     3.6446 H       
  56 H56            3.5655   -14.5697     3.6903 H       
  57 H57            3.5401   -12.1755     4.2615 H       
  58 H58            3.9072   -16.5897     4.1268 H       
  59 H59            3.8823   -16.1838     2.3940 H       
  60 H60            4.6111   -17.7134     2.9394 H       
  61 H61           -0.6017     3.9472     0.9164 H       
  62 H62           -0.6102     3.9569    -0.8636 H       
  63 H63           -2.1463     4.0118     0.0340 H       
@<TRIPOS>BOND
   1    1    2 1
   2    1    3 2
   3    1    4 1
   4    2    5 1
   5    2   39 1
   6    2   40 1
   7    4   38 1
   8    5    6 ar
   9    5   10 ar
  10    6    7 ar
  11    6   41 1
  12    7    8 ar
  13    7   42 1
  14    8    9 ar
  15    8   11 1
  16    9   10 ar
  17    9   43 1
  18   10   44 1
  19   11   14 1
  20   11   45 1
  21   11   46 1
  22   12   13 1
  23   12   21 1
  24   12   24 1
  25   13   14 1
  26   13   23 2
  27   14   15 am
  28   15   16 1
  29   15   25 2
  30   16   17 ar
  31   16   21 ar
  32   17   18 ar
  33   17   47 1
  34   18   19 ar
  35   18   26 1
  36   19   20 ar
  37   19   48 1
  38   20   21 ar
  39   20   49 1
  40   22   23 1
  41   22   24 2
  42   24   50 1
  43   26   27 am
  44   26   28 2
  45   27   29 1
  46   27   51 1
  47   29   30 1
  48   29   52 1
  49   29   53 1
  50   30   31 ar
  51   30   35 ar
  52   31   32 ar
  53   31   54 1
  54   32   33 ar
  55   32   55 1
  56   33   34 ar
  57   33   36 1
  58   34   35 ar
  59   34   56 1
  60   35   57 1
  61   36   37 1
  62   37   58 1
  63   37   59 1
  64   37   60 1
  65   38   61 1
  66   38   62 1
  67   38   63 1

#	End of record

