#	Name: ASD03730132
#	Creating user name:	WinNT
#	Creation time:	15. 06. 2019 20:44

#	Modifying user name:	WinNT
#	Modification time:	15. 06. 2019 20:44

#	Program:	/corina/corina34_cracker 3.40 0067  02.08.2006

@<TRIPOS>MOLECULE
ASD03730132
  51   55    0    0    0
SMALL
NO_CHARGES


@<TRIPOS>ATOM
   1 O1             0.1675     1.4308     0.0199 O.3     
   2 C2             0.2173    -0.0081     0.0101 C.3     
   3 O3             1.4346    -0.3039    -0.6993 O.3     
   4 C4             2.2477     0.7742    -0.4957 C.ar    
   5 C5             1.4679     1.8408    -0.0545 C.ar    
   6 C6             3.6127     0.9338    -0.6529 C.ar    
   7 C7             4.2162     2.1565    -0.3747 C.ar    
   8 C8             3.4257     3.2171     0.0575 C.ar    
   9 C9             2.0653     3.0593     0.2212 C.ar    
  10 O10            5.5298     2.5164    -0.4458 O.3     
  11 C11            4.3486     4.3916     0.2438 C.3     
  12 C12            5.6273     3.9533    -0.4831 C.3     
  13 N13            3.7259     6.5478     0.6764 N.am    
  14 C14            3.7822     5.6567    -0.3335 C.2     
  15 C15            4.6028     4.6936     1.6909 C.ar    
  16 C16            5.1092     3.9605     2.7409 C.ar    
  17 C17            5.2246     4.5342     3.9944 C.ar    
  18 C18            4.8303     5.8453     4.1901 C.ar    
  19 C19            4.3217     6.5835     3.1419 C.ar    
  20 C20            4.2022     6.0142     1.8764 C.ar    
  21 O21            3.4422     5.8409    -1.4831 O.2     
  22 C22            3.2246     7.9168     0.5322 C.3     
  23 C23            1.7198     7.9406     0.8081 C.3     
  24 C24            1.2041     9.3488     0.6597 C.2     
  25 C25            0.2810     9.6179    -0.2300 C.2     
  26 C26           -0.1618     8.5545    -1.2017 C.3     
  27 C27           -1.3842     7.8265    -0.6390 C.3     
  28 C28           -0.3381    10.9908    -0.2817 C.3     
  29 H29            0.2628    -0.3967     1.0274 H       
  30 H30           -0.6434    -0.4174    -0.5190 H       
  31 H31            4.2141     0.1039    -0.9936 H       
  32 H32            1.4644     3.8882     0.5649 H       
  33 H33            6.5133     4.2952     0.0519 H       
  34 H34            5.6312     4.3145    -1.5115 H       
  35 H35            5.4161     2.9367     2.5857 H       
  36 H36            5.6213     3.9596     4.8183 H       
  37 H37            4.9207     6.2932     5.1687 H       
  38 H38            4.0152     7.6065     3.3029 H       
  39 H39            3.7346     8.5673     1.2427 H       
  40 H40            3.4135     8.2679    -0.4823 H       
  41 H41            1.2098     7.2901     0.0976 H       
  42 H42            1.5309     7.5894     1.8226 H       
  43 H43            1.5955    10.1361     1.2869 H       
  44 H44           -0.4211     9.0176    -2.1538 H       
  45 H45            0.6481     7.8409    -1.3533 H       
  46 H46           -1.1249     7.3634     0.3131 H       
  47 H47           -2.1941     8.5401    -0.4873 H       
  48 H48           -1.7044     7.0574    -1.3418 H       
  49 H49            0.2384    11.6242    -0.9559 H       
  50 H50           -1.3634    10.9137    -0.6437 H       
  51 H51           -0.3373    11.4277     0.7169 H       
@<TRIPOS>BOND
   1    1    2 1
   2    1    5 1
   3    2    3 1
   4    2   29 1
   5    2   30 1
   6    3    4 1
   7    4    5 ar
   8    4    6 ar
   9    5    9 ar
  10    6    7 ar
  11    6   31 1
  12    7    8 ar
  13    7   10 1
  14    8    9 ar
  15    8   11 1
  16    9   32 1
  17   10   12 1
  18   11   12 1
  19   11   14 1
  20   11   15 1
  21   12   33 1
  22   12   34 1
  23   13   14 am
  24   13   20 1
  25   13   22 1
  26   14   21 2
  27   15   16 ar
  28   15   20 ar
  29   16   17 ar
  30   16   35 1
  31   17   18 ar
  32   17   36 1
  33   18   19 ar
  34   18   37 1
  35   19   20 ar
  36   19   38 1
  37   22   23 1
  38   22   39 1
  39   22   40 1
  40   23   24 1
  41   23   41 1
  42   23   42 1
  43   24   25 2
  44   24   43 1
  45   25   26 1
  46   25   28 1
  47   26   27 1
  48   26   44 1
  49   26   45 1
  50   27   46 1
  51   27   47 1
  52   27   48 1
  53   28   49 1
  54   28   50 1
  55   28   51 1

#	End of record

