#	Name: ASD01912708
#	Creating user name:	WinNT
#	Creation time:	15. 06. 2019 20:00

#	Modifying user name:	WinNT
#	Modification time:	15. 06. 2019 20:00

#	Program:	/corina/corina34_cracker 3.40 0067  02.08.2006

@<TRIPOS>MOLECULE
ASD01912708
  49   52    0    0    0
SMALL
NO_CHARGES


@<TRIPOS>ATOM
   1 C1            -0.0165     1.3669     0.0096 C.2     
   2 N2             0.0021    -0.0041     0.0020 N.pl3   
   3 C3            -1.2023    -0.6921     0.0094 C.2     
   4 C4            -2.3629    -0.0500     0.0235 C.2     
   5 N5            -2.4359     1.3309     0.0317 N.am    
   6 C6            -1.3019     2.0668     0.0309 C.2     
   7 C7             1.3014     1.7836    -0.0008 C.2     
   8 C8             2.0550     0.6110    -0.0143 C.2     
   9 N9             1.2244    -0.4045    -0.0118 N.2     
  10 O10           -1.3488     3.2837     0.0384 O.2     
  11 C11           -3.6786     1.9639     0.0466 C.ar    
  12 C12            3.5595     0.5249    -0.0295 C.3     
  13 O13            4.1120     1.8427    -0.0282 O.3     
  14 C14            5.4672     1.9435    -0.0410 C.ar    
  15 C15            6.0711     3.1925    -0.0405 C.ar    
  16 C16            7.4489     3.2923    -0.0536 C.ar    
  17 C17            8.2259     2.1487    -0.0672 C.ar    
  18 C18            7.6265     0.9027    -0.0682 C.ar    
  19 C19            6.2492     0.7976    -0.0489 C.ar    
  20 C20           -4.8356     1.2040     0.1584 C.ar    
  21 C21           -6.0655     1.8422     0.1723 C.ar    
  22 C22           -4.9009     3.9231    -0.0301 C.ar    
  23 N23           -3.7429     3.2841    -0.0406 N.ar    
  24 C24           -6.0959     3.2237     0.0735 C.ar    
  25 O25           -4.9212     5.2766    -0.1216 O.3     
  26 C26           -3.6593     5.9388    -0.2259 C.3     
  27 C27           -3.8823     7.4497    -0.3187 C.3     
  28 O28           -4.4574     7.9221     0.9012 O.3     
  29 C29           -4.7074     9.3289     0.9194 C.3     
  30 H30           -1.1950    -1.7721     0.0032 H       
  31 H31           -3.2784    -0.6229     0.0285 H       
  32 H32            1.6684     2.7994     0.0008 H       
  33 H33            3.9016    -0.0134     0.8543 H       
  34 H34            3.8840    -0.0042    -0.9255 H       
  35 H35            5.4646     4.0861    -0.0302 H       
  36 H36            7.9195     4.2644    -0.0536 H       
  37 H37            9.3029     2.2288    -0.0775 H       
  38 H38            8.2356     0.0110    -0.0796 H       
  39 H39            5.7814    -0.1759    -0.0497 H       
  40 H40           -4.7775     0.1282     0.2333 H       
  41 H41           -6.9806     1.2749     0.2580 H       
  42 H42           -7.0384     3.7511     0.0811 H       
  43 H43           -3.0570     5.7138     0.6543 H       
  44 H44           -3.1400     5.5926    -1.1196 H       
  45 H45           -2.9277     7.9481    -0.4873 H       
  46 H46           -4.5570     7.6672    -1.1467 H       
  47 H47           -3.7699     9.8664     0.7764 H       
  48 H48           -5.3992     9.5854     0.1171 H       
  49 H49           -5.1436     9.6080     1.8785 H       
@<TRIPOS>BOND
   1    1    2 1
   2    1    7 2
   3    1    6 1
   4    2    3 1
   5    2    9 1
   6    3    4 2
   7    3   30 1
   8    4    5 1
   9    4   31 1
  10    5    6 am
  11    5   11 1
  12    6   10 2
  13    7    8 1
  14    7   32 1
  15    8    9 2
  16    8   12 1
  17   11   20 ar
  18   11   23 ar
  19   12   13 1
  20   12   33 1
  21   12   34 1
  22   13   14 1
  23   14   15 ar
  24   14   19 ar
  25   15   16 ar
  26   15   35 1
  27   16   17 ar
  28   16   36 1
  29   17   18 ar
  30   17   37 1
  31   18   19 ar
  32   18   38 1
  33   19   39 1
  34   20   21 ar
  35   20   40 1
  36   21   24 ar
  37   21   41 1
  38   22   23 ar
  39   22   25 1
  40   22   24 ar
  41   24   42 1
  42   25   26 1
  43   26   27 1
  44   26   43 1
  45   26   44 1
  46   27   28 1
  47   27   45 1
  48   27   46 1
  49   28   29 1
  50   29   47 1
  51   29   48 1
  52   29   49 1

#	End of record

