#	Name: ASD01940169
#	Creating user name:	WinNT
#	Creation time:	15. 06. 2019 20:11

#	Modifying user name:	WinNT
#	Modification time:	15. 06. 2019 20:11

#	Program:	/corina/corina34_cracker 3.40 0067  02.08.2006

@<TRIPOS>MOLECULE
ASD01940169
  45   46    0    0    0
SMALL
NO_CHARGES


@<TRIPOS>ATOM
   1 C1             0.2268     1.4325    -0.1830 C.3     
   2 F2            -2.1575    -4.9530     0.2186 F       
   3 C3            -1.2422    -5.3008     1.1495 C.ar    
   4 C4             0.0904    -4.9498     0.9789 C.ar    
   5 C5             1.0309    -5.3105     1.9424 C.ar    
   6 C6             0.6319    -6.0180     3.0664 C.ar    
   7 C7            -0.6964    -6.3653     3.2307 C.ar    
   8 C8            -1.6334    -6.0037     2.2778 C.ar    
   9 N9             0.4887    -4.2350    -0.1591 N.pl3   
  10 N10            2.3772    -4.9593     1.7753 N.am    
  11 C11            0.4245    -2.8384    -0.1655 C.ar    
  12 C12            0.0348    -2.1545     0.9781 C.ar    
  13 C13           -0.0277    -0.7741     0.9687 C.ar    
  14 C14            0.2970    -0.0729    -0.1775 C.ar    
  15 C15            0.6859    -0.7495    -1.3198 C.ar    
  16 C16            0.7564    -2.1301    -1.3163 C.ar    
  17 F17            1.1366    -2.7910    -2.4316 F       
  18 F18           -2.9309    -6.3403     2.4463 F       
  19 S19            3.5707    -5.9862     2.2883 S.o2    
  20 O20            4.7757    -5.3592     1.8713 O.2     
  21 O21            3.2895    -6.1897     3.6663 O.2     
  22 C22            4.0517    -9.0821     2.9923 C.3     
  23 C23            3.1808   -10.3293     2.8290 C.3     
  24 C24            5.3954    -9.4755     3.6094 C.3     
  25 C25            3.2892    -7.5124     1.3491 C.3     
  26 O26            4.2718    -8.4839     1.7133 O.3     
  27 H27            1.1897     1.8422     0.1220 H       
  28 H28           -0.0150     1.7813    -1.1869 H       
  29 H29           -0.5451     1.7627     0.5121 H       
  30 H30            1.3593    -6.2983     3.8139 H       
  31 H31           -1.0045    -6.9166     4.1068 H       
  32 H32            0.8090    -4.7093    -0.9423 H       
  33 H33            2.6100    -4.1146     1.3590 H       
  34 H34           -0.2196    -2.7009     1.8743 H       
  35 H35           -0.3309    -0.2422     1.8584 H       
  36 H36            0.9389    -0.1986    -2.2135 H       
  37 H37            3.5471    -8.3694     3.6447 H       
  38 H38            3.6855   -11.0420     2.1766 H       
  39 H39            3.0130   -10.7856     3.8045 H       
  40 H40            2.2236   -10.0491     2.3893 H       
  41 H41            5.9001   -10.1881     2.9570 H       
  42 H42            6.0158    -8.5869     3.7257 H       
  43 H43            5.2275    -9.9317     4.5850 H       
  44 H44            2.2952    -7.8992     1.5738 H       
  45 H45            3.3645    -7.3017     0.2824 H       
@<TRIPOS>BOND
   1    1   14 1
   2    1   27 1
   3    1   28 1
   4    1   29 1
   5    2    3 1
   6    3    4 ar
   7    3    8 ar
   8    4    5 ar
   9    4    9 1
  10    5    6 ar
  11    5   10 1
  12    6    7 ar
  13    6   30 1
  14    7    8 ar
  15    7   31 1
  16    8   18 1
  17    9   11 1
  18    9   32 1
  19   10   19 am
  20   10   33 1
  21   11   12 ar
  22   11   16 ar
  23   12   13 ar
  24   12   34 1
  25   13   14 ar
  26   13   35 1
  27   14   15 ar
  28   15   16 ar
  29   15   36 1
  30   16   17 1
  31   19   20 2
  32   19   21 2
  33   19   25 1
  34   22   23 1
  35   22   26 1
  36   22   24 1
  37   22   37 1
  38   23   38 1
  39   23   39 1
  40   23   40 1
  41   24   41 1
  42   24   42 1
  43   24   43 1
  44   25   26 1
  45   25   44 1
  46   25   45 1

#	End of record

