#	Name: ASD03082400
#	Creating user name:	WinNT
#	Creation time:	15. 06. 2019 20:27

#	Modifying user name:	WinNT
#	Modification time:	15. 06. 2019 20:27

#	Program:	/corina/corina34_cracker 3.40 0067  02.08.2006

@<TRIPOS>MOLECULE
ASD03082400
  46   48    0    0    0
SMALL
NO_CHARGES


@<TRIPOS>ATOM
   1 C1             3.0786     1.9463     0.8535 C.ar    
   2 C2             4.0938     2.5171     0.0973 C.ar    
   3 C3             5.3702     1.9791     0.1365 C.ar    
   4 C4             5.6319     0.8715     0.9308 C.ar    
   5 C5             4.6202     0.3037     1.6836 C.ar    
   6 Cl6            4.9516    -1.0814     2.6764 Cl      
   7 N7             1.7906     2.4859     0.8160 N.pl3   
   8 C8             1.6093     3.8443     0.5353 C.2     
   9 C9             0.3745     4.4906     0.3534 C.2     
  10 N10            2.5625     4.7365     0.4021 N.2     
  11 N11            1.9679     5.9745     0.1259 N.pl3   
  12 C12            0.6213     5.7956     0.1015 C.2     
  13 C13            2.6411     7.1818    -0.0834 C.ar    
  14 C14            2.1813     8.3653     0.4905 C.ar    
  15 C15            3.7928     7.2317    -0.8669 C.ar    
  16 C16            4.4282     8.4427    -1.0487 C.ar    
  17 N17            3.9588     9.5432    -0.4918 N.ar    
  18 C18            2.8746     9.5361     0.2600 C.ar    
  19 C19            5.6743     8.5096    -1.8936 C.3     
  20 H20            2.5232    10.4588     0.6976 H       
  21 C21           -0.4120     6.8609    -0.1599 C.3     
  22 C22           -0.9850     7.3532     1.1706 C.3     
  23 C23            3.3441     0.8345     1.6431 C.ar    
  24 C24           -1.9210     8.5070     0.9184 C.2     
  25 O25           -2.5443     9.1028     1.9470 O.3     
  26 O26           -2.1104     8.8957    -0.2099 O.2     
  27 O27            6.3654     2.5356    -0.6030 O.3     
  28 C28            7.6563     1.9293    -0.5143 C.3     
  29 H29            3.8888     3.3788    -0.5207 H       
  30 H30            6.6268     0.4522     0.9609 H       
  31 H31            1.0220     1.9186     0.9845 H       
  32 H32           -0.5994     4.0265     0.4052 H       
  33 H33            1.2945     8.3665     1.1070 H       
  34 H34            4.1826     6.3347    -1.3250 H       
  35 H35            5.4000     8.7021    -2.9309 H       
  36 H36            6.3156     9.3135    -1.5322 H       
  37 H37            6.2085     7.5617    -1.8289 H       
  38 H38            0.0514     7.6951    -0.6868 H       
  39 H39           -1.2146     6.4467    -0.7701 H       
  40 H40           -1.5299     6.5422     1.6538 H       
  41 H41           -0.1712     7.6803     1.8178 H       
  42 H42            2.5555     0.3898     2.2320 H       
  43 H43           -3.1351     9.8386     1.7357 H       
  44 H44            8.0040     1.9643     0.5182 H       
  45 H45            7.5935     0.8914    -0.8415 H       
  46 H46            8.3561     2.4696    -1.1518 H       
@<TRIPOS>BOND
   1    1    2 ar
   2    1    7 1
   3    1   23 ar
   4    2    3 ar
   5    2   29 1
   6    3    4 ar
   7    3   27 1
   8    4    5 ar
   9    4   30 1
  10    5   23 ar
  11    5    6 1
  12    7    8 1
  13    7   31 1
  14    8    9 1
  15    8   10 2
  16    9   12 2
  17    9   32 1
  18   10   11 1
  19   11   12 1
  20   11   13 1
  21   12   21 1
  22   13   14 ar
  23   13   15 ar
  24   14   18 ar
  25   14   33 1
  26   15   16 ar
  27   15   34 1
  28   16   17 ar
  29   16   19 1
  30   17   18 ar
  31   18   20 1
  32   19   35 1
  33   19   36 1
  34   19   37 1
  35   21   22 1
  36   21   38 1
  37   21   39 1
  38   22   24 1
  39   22   40 1
  40   22   41 1
  41   23   42 1
  42   24   25 1
  43   24   26 2
  44   25   43 1
  45   27   28 1
  46   28   44 1
  47   28   45 1
  48   28   46 1

#	End of record

