#	Name: ASD00310273
#	Creating user name:	WinNT
#	Creation time:	15. 06. 2019 18:34

#	Modifying user name:	WinNT
#	Modification time:	15. 06. 2019 18:34

#	Program:	/corina/corina34_cracker 3.40 0067  02.08.2006

@<TRIPOS>MOLECULE
ASD00310273
  42   45    0    0    0
SMALL
NO_CHARGES


@<TRIPOS>ATOM
   1 N1            -0.0163     1.3500     0.0095 N.pl3   
   2 C2             0.0021    -0.0041     0.0020 C.2     
   3 C3             1.2921    -0.4483    -0.0127 C.2     
   4 C4             2.1475     0.7539    -0.0144 C.ar    
   5 C5             3.5229     0.9582    -0.0260 C.ar    
   6 C6             4.0240     2.2541    -0.0235 C.ar    
   7 C7             3.1462     3.3441    -0.0092 C.ar    
   8 C8             1.7848     3.1438     0.0023 C.ar    
   9 C9             1.2693     1.8502    -0.0001 C.ar    
  10 C10            1.7402    -1.8455    -0.0240 C.2     
  11 O11            2.9286    -2.1028    -0.0364 O.2     
  12 O12            0.8341    -2.8441    -0.0208 O.3     
  13 Cl13           3.7794     4.9605    -0.0055 Cl      
  14 C14            8.2279     2.9098    -0.0568 C.ar    
  15 C15            7.4113     3.5742    -0.9715 C.ar    
  16 C16            6.0504     3.3619    -0.9608 C.ar    
  17 C17            5.4891     2.4824    -0.0353 C.ar    
  18 C18            6.3058     1.8180     0.8793 C.ar    
  19 C19            7.6667     2.0304     0.8686 C.ar    
  20 C20            9.6939     3.1339    -0.0724 C.ar    
  21 C21           10.5125     2.4712     0.8406 C.ar    
  22 C22           11.8761     2.6832     0.8212 C.ar    
  23 C23           12.4306     3.5517    -0.1017 C.ar    
  24 C24           11.6230     4.2124    -1.0099 C.ar    
  25 C25           10.2589     4.0034    -1.0038 C.ar    
  26 C26            1.3493    -4.2016    -0.0326 C.3     
  27 H27           -0.8206     1.8921     0.0164 H       
  28 H28           -0.8729    -0.6372     0.0073 H       
  29 H29            4.1974     0.1148    -0.0366 H       
  30 H30            1.1151     3.9911     0.0133 H       
  31 H31            7.8460     4.2555    -1.6879 H       
  32 H32            5.4179     3.8767    -1.6689 H       
  33 H33            5.8712     1.1370     1.5961 H       
  34 H34            8.2992     1.5157     1.5767 H       
  35 H35           10.0806     1.7935     1.5620 H       
  36 H36           12.5114     2.1702     1.5281 H       
  37 H37           13.4982     3.7148    -0.1131 H       
  38 H38           12.0613     4.8896    -1.7279 H       
  39 H39            9.6297     4.5163    -1.7162 H       
  40 H40            0.5175    -4.9060    -0.0285 H       
  41 H41            1.9504    -4.3544    -0.9290 H       
  42 H42            1.9668    -4.3636     0.8509 H       
@<TRIPOS>BOND
   1    1    2 1
   2    1    9 1
   3    1   27 1
   4    2    3 2
   5    2   28 1
   6    3    4 1
   7    3   10 1
   8    4    5 ar
   9    4    9 ar
  10    5    6 ar
  11    5   29 1
  12    6    7 ar
  13    6   17 1
  14    7    8 ar
  15    7   13 1
  16    8    9 ar
  17    8   30 1
  18   10   11 2
  19   10   12 1
  20   12   26 1
  21   14   15 ar
  22   14   19 ar
  23   14   20 1
  24   15   16 ar
  25   15   31 1
  26   16   17 ar
  27   16   32 1
  28   17   18 ar
  29   18   19 ar
  30   18   33 1
  31   19   34 1
  32   20   21 ar
  33   20   25 ar
  34   21   22 ar
  35   21   35 1
  36   22   23 ar
  37   22   36 1
  38   23   24 ar
  39   23   37 1
  40   24   25 ar
  41   24   38 1
  42   25   39 1
  43   26   40 1
  44   26   41 1
  45   26   42 1

#	End of record

