#	Name: ASD01917927
#	Creating user name:	WinNT
#	Creation time:	15. 06. 2019 20:10

#	Modifying user name:	WinNT
#	Modification time:	15. 06. 2019 20:10

#	Program:	/corina/corina34_cracker 3.40 0067  02.08.2006

@<TRIPOS>MOLECULE
ASD01917927
  42   44    0    0    0
SMALL
NO_CHARGES


@<TRIPOS>ATOM
   1 C1            -0.0129     1.3466    -0.0388 C.ar    
   2 C2            -0.0790    -0.0032    -0.3588 C.ar    
   3 C3             1.0716    -0.7690    -0.3877 C.ar    
   4 C4             2.2938    -0.1970    -0.0986 C.ar    
   5 C5             2.3704     1.1589     0.2236 C.ar    
   6 C6             1.2083     1.9307     0.2524 C.ar    
   7 O7            -1.1466     2.0957    -0.0170 O.3     
   8 C8            -1.9901     1.9458     1.0379 C.ar    
   9 C9            -2.5826     0.9301     3.1127 C.ar    
  10 C10           -1.6917     1.0480     2.0579 C.ar    
  11 C11           -3.1586     2.6903     1.1159 C.ar    
  12 N12           -3.9796     2.5481     2.1372 N.ar    
  13 C13           -3.7290     1.7022     3.1174 C.ar    
  14 C14            3.6778     1.7749     0.5343 C.2     
  15 N15            4.7987     1.0269     0.5066 N.am    
  16 O16            3.7420     2.9560     0.8147 O.2     
  17 C17            6.0466     1.6302     0.6924 C.ar    
  18 C18            7.1569     1.1592     0.0033 C.ar    
  19 C19            6.1774     2.7051     1.5619 C.ar    
  20 C20            7.4114     3.2986     1.7432 C.ar    
  21 C21            8.5156     2.8240     1.0598 C.ar    
  22 C22            8.3877     1.7570     0.1890 C.ar    
  23 C23            9.5928     1.2467    -0.5581 C.3     
  24 C24            9.7191     1.9889    -1.8901 C.3     
  25 H25           -1.0327    -0.4564    -0.5856 H       
  26 H26            1.0137    -1.8182    -0.6369 H       
  27 H27            3.1906    -0.7984    -0.1214 H       
  28 H28            1.2612     2.9804     0.5010 H       
  29 H29           -2.3834     0.2429     3.9217 H       
  30 H30           -0.7882     0.4572     2.0281 H       
  31 H31           -3.3976     3.3937     0.3320 H       
  32 H32           -4.4271     1.6142     3.9368 H       
  33 H33            4.7398     0.0702     0.3579 H       
  34 H34            7.0578     0.3260    -0.6768 H       
  35 H35            5.3151     3.0767     2.0956 H       
  36 H36            7.5137     4.1346     2.4193 H       
  37 H37            9.4792     3.2901     1.2030 H       
  38 H38           10.4890     1.4163     0.0387 H       
  39 H39            9.4784     0.1792    -0.7465 H       
  40 H40           10.5907     1.6198    -2.4305 H       
  41 H41            8.8229     1.8193    -2.4869 H       
  42 H42            9.8336     3.0564    -1.7017 H       
@<TRIPOS>BOND
   1    1    2 ar
   2    1    6 ar
   3    1    7 1
   4    2    3 ar
   5    2   25 1
   6    3    4 ar
   7    3   26 1
   8    4    5 ar
   9    4   27 1
  10    5    6 ar
  11    5   14 1
  12    6   28 1
  13    7    8 1
  14    8   11 ar
  15    8   10 ar
  16    9   10 ar
  17    9   13 ar
  18    9   29 1
  19   10   30 1
  20   11   12 ar
  21   11   31 1
  22   12   13 ar
  23   13   32 1
  24   14   15 am
  25   14   16 2
  26   15   17 1
  27   15   33 1
  28   17   19 ar
  29   17   18 ar
  30   18   22 ar
  31   18   34 1
  32   19   20 ar
  33   19   35 1
  34   20   21 ar
  35   20   36 1
  36   21   22 ar
  37   21   37 1
  38   22   23 1
  39   23   24 1
  40   23   38 1
  41   23   39 1
  42   24   40 1
  43   24   41 1
  44   24   42 1

#	End of record

