#	Name: ASD01915450
#	Creating user name:	WinNT
#	Creation time:	15. 06. 2019 20:05

#	Modifying user name:	WinNT
#	Modification time:	15. 06. 2019 20:05

#	Program:	/corina/corina34_cracker 3.40 0067  02.08.2006

@<TRIPOS>MOLECULE
ASD01915450
  42   46    0    0    0
SMALL
NO_CHARGES


@<TRIPOS>ATOM
   1 N1             0.0455     1.4112     0.3057 N.pl3   
   2 N2             0.0883     0.0198     0.4315 N.2     
   3 C3             1.2945    -0.4183     0.1650 C.2     
   4 C4             2.1221     0.7477    -0.1620 C.ar    
   5 C5             1.2809     1.8752    -0.0569 C.ar    
   6 N6             1.7562     3.0906    -0.2988 N.ar    
   7 C7             3.4595     0.9145    -0.5220 C.ar    
   8 C8             3.9169     2.2091    -0.7671 C.ar    
   9 C9             3.0164     3.2893    -0.6421 C.ar    
  10 C10            5.2801     2.4393    -1.1403 C.1     
  11 N11            6.3615     2.6219    -1.4364 N.1     
  12 C12            3.4922     4.6679    -0.9007 C.ar    
  13 C13            2.6427     5.6023    -1.4925 C.ar    
  14 C14            3.0918     6.8851    -1.7309 C.ar    
  15 C15            4.3818     7.2450    -1.3842 C.ar    
  16 C16            5.2293     6.3224    -0.7973 C.ar    
  17 C17            4.7898     5.0384    -0.5482 C.ar    
  18 C18            1.7403    -1.8316     0.1900 C.ar    
  19 C19            2.9372    -2.1763     0.8170 C.ar    
  20 C20            3.3481    -3.4940     0.8376 C.ar    
  21 C21            2.5726    -4.4735     0.2354 C.ar    
  22 C22            1.3834    -4.1347    -0.3887 C.ar    
  23 C23            0.9615    -2.8210    -0.4083 C.ar    
  24 Cl24           4.8378    -3.9254     1.6176 Cl      
  25 C25            4.3835    -0.2699    -0.6422 C.3     
  26 C26            4.0708    -1.3026    -1.7270 C.3     
  27 C27            5.2619    -0.3566    -1.8919 C.3     
  28 F28            2.9784    -5.7619     0.2573 F       
  29 H29           -0.7396     1.9624     0.4492 H       
  30 H30            1.6355     5.3224    -1.7640 H       
  31 H31            2.4350     7.6095    -2.1895 H       
  32 H32            4.7288     8.2502    -1.5728 H       
  33 H33            6.2354     6.6091    -0.5291 H       
  34 H34            5.4506     4.3205    -0.0852 H       
  35 H35            3.5417    -1.4137     1.2854 H       
  36 H36            0.7829    -4.9008    -0.8565 H       
  37 H37            0.0315    -2.5589    -0.8908 H       
  38 H38            4.8033    -0.6356     0.2949 H       
  39 H39            4.2853    -2.3477    -1.5037 H       
  40 H40            3.1968    -1.1253    -2.3537 H       
  41 H41            5.1715     0.4430    -2.6271 H       
  42 H42            6.2600    -0.7793    -1.7771 H       
@<TRIPOS>BOND
   1    1    2 1
   2    1    5 1
   3    1   29 1
   4    2    3 2
   5    3    4 1
   6    3   18 1
   7    4    7 ar
   8    4    5 ar
   9    5    6 ar
  10    6    9 ar
  11    7    8 ar
  12    7   25 1
  13    8    9 ar
  14    8   10 1
  15    9   12 1
  16   10   11 3
  17   12   13 ar
  18   12   17 ar
  19   13   14 ar
  20   13   30 1
  21   14   15 ar
  22   14   31 1
  23   15   16 ar
  24   15   32 1
  25   16   17 ar
  26   16   33 1
  27   17   34 1
  28   18   19 ar
  29   18   23 ar
  30   19   20 ar
  31   19   35 1
  32   20   21 ar
  33   20   24 1
  34   21   22 ar
  35   21   28 1
  36   22   23 ar
  37   22   36 1
  38   23   37 1
  39   25   26 1
  40   25   27 1
  41   25   38 1
  42   26   27 1
  43   26   39 1
  44   26   40 1
  45   27   41 1
  46   27   42 1

#	End of record

