#	Name: ASD01915164
#	Creating user name:	WinNT
#	Creation time:	15. 06. 2019 20:04

#	Modifying user name:	WinNT
#	Modification time:	15. 06. 2019 20:04

#	Program:	/corina/corina34_cracker 3.40 0067  02.08.2006

@<TRIPOS>MOLECULE
ASD01915164
  38   41    0    0    0
SMALL
NO_CHARGES


@<TRIPOS>ATOM
   1 C1            -2.5953    -1.4887    -1.0931 C.ar    
   2 C2            -3.0594    -2.7102    -1.5498 C.ar    
   3 C3            -4.3980    -2.8763    -1.8559 C.ar    
   4 C4            -5.2784    -1.8239    -1.7078 C.ar    
   5 C5            -4.8173    -0.5918    -1.2484 C.ar    
   6 C6            -3.4695    -0.4304    -0.9359 C.ar    
   7 C7            -5.7601     0.5432    -1.0874 C.2     
   8 N8            -5.4528     1.7867    -0.6541 N.2     
   9 C9            -6.5801     2.4534    -0.6703 C.2     
  10 O10           -7.5267     1.6154    -1.1045 O.3     
  11 N11           -7.0423     0.5294    -1.3434 N.2     
  12 C12           -6.7737     3.8941    -0.2731 C.3     
  13 C13           -7.3189     4.7816    -1.4067 C.3     
  14 N14           -8.1887     5.3863    -0.3792 N.am    
  15 C15           -8.1079     4.1651     0.4455 C.3     
  16 C16           -8.8081     6.5760    -0.2470 C.2     
  17 C17           -9.6548     6.8406     0.9338 C.ar    
  18 O18           -8.6697     7.4314    -1.0998 O.2     
  19 C19           -9.9403     5.8145     1.8365 C.ar    
  20 C20          -10.7312     6.0682     2.9373 C.ar    
  21 C21          -11.2432     7.3365     3.1498 C.ar    
  22 C22          -10.9666     8.3591     2.2615 C.ar    
  23 C23          -10.1700     8.1217     1.1564 C.ar    
  24 Cl24          -0.9139    -1.2883    -0.7105 Cl      
  25 F25           -9.8994     9.1212     0.2886 F       
  26 H26           -2.3738    -3.5363    -1.6679 H       
  27 H27           -4.7549    -3.8315    -2.2119 H       
  28 H28           -6.3232    -1.9550    -1.9479 H       
  29 H29           -3.1070     0.5225    -0.5795 H       
  30 H30           -5.9061     4.3150     0.2351 H       
  31 H31           -6.5814     5.4704    -1.8188 H       
  32 H32           -7.8628     4.2301    -2.1736 H       
  33 H33           -8.8836     3.4325     0.2227 H       
  34 H34           -8.0003     4.3616     1.5122 H       
  35 H35           -9.5427     4.8237     1.6728 H       
  36 H36          -10.9521     5.2746     3.6357 H       
  37 H37          -11.8622     7.5282     4.0138 H       
  38 H38          -11.3700     9.3461     2.4331 H       
@<TRIPOS>BOND
   1    1    2 ar
   2    1   24 1
   3    1    6 ar
   4    2    3 ar
   5    2   26 1
   6    3    4 ar
   7    3   27 1
   8    4    5 ar
   9    4   28 1
  10    5    6 ar
  11    5    7 1
  12    6   29 1
  13    7    8 1
  14    7   11 2
  15    8    9 2
  16    9   10 1
  17    9   12 1
  18   10   11 1
  19   12   13 1
  20   12   15 1
  21   12   30 1
  22   13   14 1
  23   13   31 1
  24   13   32 1
  25   14   15 1
  26   14   16 am
  27   15   33 1
  28   15   34 1
  29   16   17 1
  30   16   18 2
  31   17   19 ar
  32   17   23 ar
  33   19   20 ar
  34   19   35 1
  35   20   21 ar
  36   20   36 1
  37   21   22 ar
  38   21   37 1
  39   22   23 ar
  40   22   38 1
  41   23   25 1

#	End of record

