#	Name: ASD01940686
#	Creating user name:	WinNT
#	Creation time:	15. 06. 2019 20:13

#	Modifying user name:	WinNT
#	Modification time:	15. 06. 2019 20:13

#	Program:	/corina/corina34_cracker 3.40 0067  02.08.2006

@<TRIPOS>MOLECULE
ASD01940686
  39   41    0    0    0
SMALL
NO_CHARGES


@<TRIPOS>ATOM
   1 C1             0.2698     1.0088     0.9783 C.ar    
   2 C2            -0.2284     0.3419    -0.1257 C.ar    
   3 C3             0.5750     0.1326    -1.2336 C.ar    
   4 C4             1.8828     0.5905    -1.2408 C.ar    
   5 C5             2.3886     1.2609    -0.1350 C.ar    
   6 C6             1.5775     1.4707     0.9791 C.ar    
   7 N7             2.0825     2.1470     2.0977 N.am    
   8 S8             1.6136     1.6947     3.6201 S.o2    
   9 C9             2.1550    -0.0304     3.7667 C.3     
  10 O10            2.3723     2.5305     4.4833 O.2     
  11 O11            0.1950     1.7710     3.5871 O.2     
  12 F12            0.0830    -0.5196    -2.3096 F       
  13 F13            2.6653     0.3845    -2.3227 F       
  14 N14            3.7112     1.7250    -0.1388 N.pl3   
  15 C15            4.7580     0.8562     0.1850 C.ar    
  16 C16            6.0559     1.3428     0.3064 C.ar    
  17 C17            4.5037    -0.4928     0.3917 C.ar    
  18 C18            5.5400    -1.3491     0.7116 C.ar    
  19 C19            6.8301    -0.8644     0.8266 C.ar    
  20 C20            7.0878     0.4805     0.6266 C.ar    
  21 F21            6.3073     2.6558     0.1112 F       
  22 I22            8.3966    -2.1675     1.3131 I       
  23 C23            1.7124    -0.7059     5.0754 C.3     
  24 C24            1.4320    -1.9652     4.2385 C.3     
  25 C25            1.2408    -1.0272     3.0350 C.3     
  26 H26           -0.3613     1.1742     1.8390 H       
  27 H27           -1.2470    -0.0171    -0.1236 H       
  28 H28            2.7067     2.8802     1.9802 H       
  29 H29            3.2138    -0.1621     3.5437 H       
  30 H30            3.9004     2.6488    -0.3661 H       
  31 H31            3.4967    -0.8727     0.3030 H       
  32 H32            5.3421    -2.3986     0.8724 H       
  33 H33            8.0963     0.8560     0.7171 H       
  34 H34            2.5199    -0.8318     5.7966 H       
  35 H35            0.8172    -0.2645     5.5135 H       
  36 H36            2.2928    -2.6271     4.1438 H       
  37 H37            0.5230    -2.4906     4.5314 H       
  38 H38            0.2167    -0.6738     2.9153 H       
  39 H39            1.6676    -1.4126     2.1090 H       
@<TRIPOS>BOND
   1    1    2 ar
   2    1    6 ar
   3    1   26 1
   4    2    3 ar
   5    2   27 1
   6    3    4 ar
   7    3   12 1
   8    4    5 ar
   9    4   13 1
  10    5    6 ar
  11    5   14 1
  12    6    7 1
  13    7    8 am
  14    7   28 1
  15    8    9 1
  16    8   10 2
  17    8   11 2
  18    9   23 1
  19    9   25 1
  20    9   29 1
  21   14   15 1
  22   14   30 1
  23   15   16 ar
  24   15   17 ar
  25   16   21 1
  26   16   20 ar
  27   17   18 ar
  28   17   31 1
  29   18   19 ar
  30   18   32 1
  31   19   20 ar
  32   19   22 1
  33   20   33 1
  34   23   24 1
  35   23   34 1
  36   23   35 1
  37   24   25 1
  38   24   36 1
  39   24   37 1
  40   25   38 1
  41   25   39 1

#	End of record

