#	Name: ASD05430400
#	Creating user name:	WinNT
#	Creation time:	15. 06. 2019 21:00

#	Modifying user name:	WinNT
#	Modification time:	15. 06. 2019 21:00

#	Program:	/corina/corina34_cracker 3.40 0067  02.08.2006

@<TRIPOS>MOLECULE
ASD05430400
  62   66    0    0    0
SMALL
NO_CHARGES


@<TRIPOS>ATOM
   1 C1            -0.1855     1.8636    -1.4203 C.ar    
   2 C2            -0.0430     0.5104    -1.1111 C.ar    
   3 C3            -1.1547    -0.2474    -0.7627 C.ar    
   4 C4            -2.4026     0.3332    -0.7208 C.ar    
   5 C5            -2.5536     1.6907    -1.0293 C.ar    
   6 C6            -1.4327     2.4550    -1.3747 C.ar    
   7 C7            -4.9651     1.5733    -0.6465 C.2     
   8 C8            -3.8839     2.3125    -0.9854 C.2     
   9 C9            -6.2466     2.1722    -0.6042 C.2     
  10 O10            0.9045     2.6013    -1.7611 O.3     
  11 C11            0.6853     3.9802    -2.0652 C.3     
  12 C12            1.7947    -0.8537    -0.1710 C.2     
  13 N13            1.2229    -0.0855    -1.1524 N.pl3   
  14 C14            3.0093    -1.2210    -0.6214 C.2     
  15 N15            3.1799    -0.6947    -1.8433 N.2     
  16 C16            2.1172    -0.0125    -2.1727 C.2     
  17 C17            4.0052    -2.0755     0.1197 C.3     
  18 N18           -7.4001     1.4910    -0.3848 N.pl3   
  19 C19           -8.4660     2.5089    -0.2528 C.3     
  20 C20           -7.7527     3.7880    -0.6264 C.2     
  21 N21           -6.4684     3.4675    -0.7682 N.2     
  22 O22           -8.2507     4.8882    -0.7648 O.2     
  23 C23           -7.6543     0.0501    -0.3445 C.3     
  24 C24           -8.7877    -0.2399    -1.3416 C.3     
  25 C25           -9.9634     0.7001    -1.0753 C.3     
  26 C26           -9.5459     2.1597    -1.2813 C.3     
  27 C27           -9.0109     2.5670     1.1510 C.ar    
  28 C28          -10.0167     3.4620     1.4650 C.ar    
  29 C29           -8.5086     1.7213     2.1224 C.ar    
  30 C30           -9.0081     1.7730     3.4099 C.ar    
  31 C31          -10.0118     2.6726     3.7269 C.ar    
  32 C32          -10.5175     3.5158     2.7520 C.ar    
  33 F33          -10.5009     2.7241     4.9852 F       
  34 C34           -6.3928    -0.7130    -0.7534 C.3     
  35 O35           -5.9417    -0.2412    -2.0246 O.3     
  36 H36           -1.0396    -1.2945    -0.5245 H       
  37 H37           -3.2647    -0.2584    -0.4504 H       
  38 H38           -1.5443     3.5024    -1.6131 H       
  39 H39           -4.8503     0.5262    -0.4083 H       
  40 H40           -3.9987     3.3596    -1.2236 H       
  41 H41            0.2533     4.4794    -1.1979 H       
  42 H42            1.6346     4.4514    -2.3202 H       
  43 H43            0.0008     4.0617    -2.9096 H       
  44 H44            1.3567    -1.1108     0.7822 H       
  45 H45            1.9728     0.5208    -3.1007 H       
  46 H46            3.8345    -3.1246    -0.1218 H       
  47 H47            5.0160    -1.7945    -0.1759 H       
  48 H48            3.8853    -1.9255     1.1926 H       
  49 H49           -7.9587    -0.2451     0.6596 H       
  50 H50           -8.4244    -0.0871    -2.3578 H       
  51 H51           -9.1162    -1.2728    -1.2265 H       
  52 H52          -10.7776     0.4595    -1.7589 H       
  53 H53          -10.3054     0.5657    -0.0491 H       
  54 H54          -10.4089     2.8105    -1.1409 H       
  55 H55           -9.1476     2.2878    -2.2878 H       
  56 H56          -10.4110     4.1195     0.7044 H       
  57 H57           -7.7257     1.0197     1.8750 H       
  58 H58           -8.6160     1.1118     4.1685 H       
  59 H59          -11.3001     4.2181     2.9981 H       
  60 H60           -5.6134    -0.5521    -0.0086 H       
  61 H61           -6.6176    -1.7775    -0.8199 H       
  62 H62           -5.1435    -0.6818    -2.3470 H       
@<TRIPOS>BOND
   1    1    2 ar
   2    1   10 1
   3    1    6 ar
   4    2    3 ar
   5    2   13 1
   6    3    4 ar
   7    3   36 1
   8    4    5 ar
   9    4   37 1
  10    5    6 ar
  11    5    8 1
  12    6   38 1
  13    7    8 2
  14    7    9 1
  15    7   39 1
  16    8   40 1
  17    9   18 1
  18    9   21 2
  19   10   11 1
  20   11   41 1
  21   11   42 1
  22   11   43 1
  23   12   13 1
  24   12   14 2
  25   12   44 1
  26   13   16 1
  27   14   15 1
  28   14   17 1
  29   15   16 2
  30   16   45 1
  31   17   46 1
  32   17   47 1
  33   17   48 1
  34   18   19 1
  35   18   23 1
  36   19   20 1
  37   19   27 1
  38   19   26 1
  39   20   21 1
  40   20   22 2
  41   23   24 1
  42   23   34 1
  43   23   49 1
  44   24   25 1
  45   24   50 1
  46   24   51 1
  47   25   26 1
  48   25   52 1
  49   25   53 1
  50   26   54 1
  51   26   55 1
  52   27   28 ar
  53   27   29 ar
  54   28   32 ar
  55   28   56 1
  56   29   30 ar
  57   29   57 1
  58   30   31 ar
  59   30   58 1
  60   31   32 ar
  61   31   33 1
  62   32   59 1
  63   34   35 1
  64   34   60 1
  65   34   61 1
  66   35   62 1

#	End of record

