#	Name: ASD00310203
#	Creating user name:	WinNT
#	Creation time:	15. 06. 2019 18:34

#	Modifying user name:	WinNT
#	Modification time:	15. 06. 2019 18:34

#	Program:	/corina/corina34_cracker 3.40 0067  02.08.2006

@<TRIPOS>MOLECULE
ASD00310203
  27   28    0    0    0
SMALL
NO_CHARGES


@<TRIPOS>ATOM
   1 C1            -0.0188     1.5336     0.0105 C.3     
   2 C2             0.0021    -0.0041     0.0020 C.3     
   3 C3             1.3941     0.0896     0.6488 C.3     
   4 C4             1.5179     1.4762    -0.0045 C.3     
   5 O5            -0.5818     2.1049    -1.1721 O.3     
   6 C6             2.3773    -0.9196     0.1141 C.ar    
   7 C7             2.9570    -1.8450     0.9703 C.ar    
   8 C8             3.8616    -2.7727     0.4756 C.ar    
   9 C9             4.1836    -2.7732    -0.8689 C.ar    
  10 C10            3.6043    -1.8491    -1.7200 C.ar    
  11 C11            2.6976    -0.9276    -1.2295 C.ar    
  12 O12            2.6392    -1.8421     2.2916 O.3     
  13 C13            3.2743    -2.8233     3.1138 C.3     
  14 Br14           5.4168    -4.0374    -1.5449 Br      
  15 H15           -0.4309     1.9596     0.9252 H       
  16 H16           -0.7506    -0.4545     0.6490 H       
  17 H17            0.0139    -0.4351    -0.9991 H       
  18 H18            1.3682     0.1209     1.7381 H       
  19 H19            1.9441     1.4499    -1.0074 H       
  20 H20            1.9889     2.2208     0.6373 H       
  21 H21           -0.5977     3.0718    -1.1727 H       
  22 H22            4.3144    -3.4937     1.1401 H       
  23 H23            3.8571    -1.8505    -2.7700 H       
  24 H24            2.2431    -0.2102    -1.8967 H       
  25 H25            3.0190    -3.8198     2.7533 H       
  26 H26            4.3551    -2.6878     3.0722 H       
  27 H27            2.9334    -2.7108     4.1430 H       
@<TRIPOS>BOND
   1    1    2 1
   2    1    4 1
   3    1    5 1
   4    1   15 1
   5    2    3 1
   6    2   16 1
   7    2   17 1
   8    3    4 1
   9    3    6 1
  10    3   18 1
  11    4   19 1
  12    4   20 1
  13    5   21 1
  14    6    7 ar
  15    6   11 ar
  16    7    8 ar
  17    7   12 1
  18    8    9 ar
  19    8   22 1
  20    9   10 ar
  21    9   14 1
  22   10   11 ar
  23   10   23 1
  24   11   24 1
  25   12   13 1
  26   13   25 1
  27   13   26 1
  28   13   27 1

#	End of record

