#	Name: ASD01900815
#	Creating user name:	WinNT
#	Creation time:	15. 06. 2019 19:52

#	Modifying user name:	WinNT
#	Modification time:	15. 06. 2019 19:52

#	Program:	/corina/corina34_cracker 3.40 0067  02.08.2006

@<TRIPOS>MOLECULE
ASD01900815
  32   34    0    0    0
SMALL
NO_CHARGES


@<TRIPOS>ATOM
   1 C1             0.3950     3.9786     0.6370 C.ar    
   2 C2             0.8286     5.0086     1.4934 C.ar    
   3 C3             2.1948     5.2635     1.6081 C.ar    
   4 C4             3.0682     4.4883     0.8709 C.ar    
   5 C5             2.5702     3.4885     0.0456 C.ar    
   6 N6             1.2800     3.2612    -0.0511 N.ar    
   7 N7            -1.4230     4.8966     1.5704 N.2     
   8 N8            -0.2917     5.5602     2.0564 N.pl3   
   9 C9            -1.0668     3.9630     0.7286 C.2     
  10 N10           -1.9266     3.0976     0.0448 N.pl3   
  11 C11           -3.3097     3.2651     0.1438 C.ar    
  12 C12           -3.8442     4.5291     0.3603 C.ar    
  13 C13           -5.2131     4.6910     0.4577 C.ar    
  14 C14           -6.0509     3.5953     0.3396 C.ar    
  15 C15           -5.5214     2.3365     0.1241 C.ar    
  16 C16           -4.1543     2.1689     0.0201 C.ar    
  17 S17           -7.7959     3.8053     0.4649 S.o2    
  18 O18           -8.0890     4.8543    -0.4478 O.2     
  19 O19           -8.3208     2.4989     0.2725 O.2     
  20 C20           -8.0643     4.3540     2.1729 C.3     
  21 Cl21          -5.8827     6.2696     0.7288 Cl      
  22 H22            2.5601     6.0466     2.2559 H       
  23 H23            4.1327     4.6588     0.9356 H       
  24 H24            3.2579     2.8853    -0.5286 H       
  25 H25           -0.2991     6.2915     2.6938 H       
  26 H26           -1.5624     2.3810    -0.4981 H       
  27 H27           -3.1907     5.3839     0.4528 H       
  28 H28           -6.1777     1.4837     0.0328 H       
  29 H29           -3.7420     1.1858    -0.1530 H       
  30 H30           -7.5288     5.2881     2.3429 H       
  31 H31           -9.1298     4.5103     2.3411 H       
  32 H32           -7.6955     3.5934     2.8611 H       
@<TRIPOS>BOND
   1    1    2 ar
   2    1    6 ar
   3    1    9 1
   4    2    3 ar
   5    2    8 1
   6    3    4 ar
   7    3   22 1
   8    4    5 ar
   9    4   23 1
  10    5    6 ar
  11    5   24 1
  12    7    8 1
  13    7    9 2
  14    8   25 1
  15    9   10 1
  16   10   11 1
  17   10   26 1
  18   11   12 ar
  19   11   16 ar
  20   12   13 ar
  21   12   27 1
  22   13   14 ar
  23   13   21 1
  24   14   15 ar
  25   14   17 1
  26   15   16 ar
  27   15   28 1
  28   16   29 1
  29   17   18 2
  30   17   19 2
  31   17   20 1
  32   20   30 1
  33   20   31 1
  34   20   32 1

#	End of record

