#	Name: ASD03430432
#	Creating user name:	WinNT
#	Creation time:	15. 06. 2019 20:41

#	Modifying user name:	WinNT
#	Modification time:	15. 06. 2019 20:41

#	Program:	/corina/corina34_cracker 3.40 0067  02.08.2006

@<TRIPOS>MOLECULE
ASD03430432
  58   63    0    0    0
SMALL
NO_CHARGES


@<TRIPOS>ATOM
   1 O1             2.1088    -1.0570    -0.1754 O.3     
   2 C2             2.6243    -2.2944    -0.1098 C.2     
   3 N3             3.9673    -2.2177    -0.0282 N.am    
   4 C4             4.3121    -0.8665    -0.0432 C.ar    
   5 C5             3.1180    -0.1514    -0.1369 C.ar    
   6 C6             5.5218    -0.1937     0.0149 C.ar    
   7 C7             5.5414     1.1918    -0.0204 C.ar    
   8 C8             4.3524     1.9021    -0.1137 C.ar    
   9 C9             3.1451     1.2336    -0.1720 C.ar    
  10 O10            1.9793    -3.3252    -0.1215 O.2     
  11 C11            4.8956    -3.3476     0.0606 C.3     
  12 O12            6.7265     1.8559     0.0368 O.3     
  13 N13            6.1316     4.6446     0.6819 N.am    
  14 C14            5.0506     3.9583     1.0890 C.2     
  15 C15            4.3788     3.4084    -0.1513 C.3     
  16 C16            5.2497     3.8946    -1.2869 C.ar    
  17 C17            5.1813     3.7370    -2.6529 C.ar    
  18 C18            6.1446     4.3125    -3.4630 C.ar    
  19 C19            7.1725     5.0439    -2.8964 C.ar    
  20 C20            7.2433     5.2033    -1.5281 C.ar    
  21 C21            6.2770     4.6268    -0.7057 C.ar    
  22 O22            4.6824     3.8073     2.2347 O.2     
  23 O23            3.0535     3.9283    -0.2751 O.3     
  24 C24            7.0488     5.3374     1.5902 C.3     
  25 C25            7.2392     6.7580     1.1247 C.ar    
  26 C26            8.4961     7.3325     1.1545 C.ar    
  27 C27            8.6708     8.6356     0.7276 C.ar    
  28 C28            7.5885     9.3641     0.2704 C.ar    
  29 C29            6.3317     8.7892     0.2397 C.ar    
  30 C30            6.1579     7.4847     0.6626 C.ar    
  31 C31            6.4720     5.3380     2.9824 C.ar    
  32 C32            7.1458     4.7049     4.0101 C.ar    
  33 C33            6.6166     4.7055     5.2871 C.ar    
  34 C34            5.4138     5.3395     5.5366 C.ar    
  35 C35            4.7405     5.9734     4.5092 C.ar    
  36 C36            5.2718     5.9765     3.2330 C.ar    
  37 H37            6.4465    -0.7469     0.0878 H       
  38 H38            2.2224     1.7902    -0.2449 H       
  39 H39            4.3334    -4.2814     0.0507 H       
  40 H40            5.5777    -3.3251    -0.7893 H       
  41 H41            5.4664    -3.2770     0.9865 H       
  42 H42            7.1249     2.0247    -0.8280 H       
  43 H43            4.3773     3.1649    -3.0917 H       
  44 H44            6.0939     4.1904    -4.5349 H       
  45 H45            7.9243     5.4926    -3.5288 H       
  46 H46            8.0491     5.7759    -1.0931 H       
  47 H47            2.4614     3.6714     0.4449 H       
  48 H48            8.0108     4.8249     1.5958 H       
  49 H49            9.3417     6.7634     1.5117 H       
  50 H50            9.6527     9.0848     0.7515 H       
  51 H51            7.7248    10.3824    -0.0626 H       
  52 H52            5.4861     9.3584    -0.1172 H       
  53 H53            5.1766     7.0343     0.6352 H       
  54 H54            8.0855     4.2096     3.8152 H       
  55 H55            7.1427     4.2103     6.0899 H       
  56 H56            5.0001     5.3393     6.5342 H       
  57 H57            3.8006     6.4684     4.7040 H       
  58 H58            4.7475     6.4749     2.4310 H       
@<TRIPOS>BOND
   1    1    2 1
   2    1    5 1
   3    2    3 am
   4    2   10 2
   5    3    4 1
   6    3   11 1
   7    4    5 ar
   8    4    6 ar
   9    5    9 ar
  10    6    7 ar
  11    6   37 1
  12    7    8 ar
  13    7   12 1
  14    8    9 ar
  15    8   15 1
  16    9   38 1
  17   11   39 1
  18   11   40 1
  19   11   41 1
  20   12   42 1
  21   13   14 am
  22   13   21 1
  23   13   24 1
  24   14   15 1
  25   14   22 2
  26   15   16 1
  27   15   23 1
  28   16   17 ar
  29   16   21 ar
  30   17   18 ar
  31   17   43 1
  32   18   19 ar
  33   18   44 1
  34   19   20 ar
  35   19   45 1
  36   20   21 ar
  37   20   46 1
  38   23   47 1
  39   24   25 1
  40   24   31 1
  41   24   48 1
  42   25   26 ar
  43   25   30 ar
  44   26   27 ar
  45   26   49 1
  46   27   28 ar
  47   27   50 1
  48   28   29 ar
  49   28   51 1
  50   29   30 ar
  51   29   52 1
  52   30   53 1
  53   31   32 ar
  54   31   36 ar
  55   32   33 ar
  56   32   54 1
  57   33   34 ar
  58   33   55 1
  59   34   35 ar
  60   34   56 1
  61   35   36 ar
  62   35   57 1
  63   36   58 1

#	End of record

