#	Name: ASD01816366
#	Creating user name:	WinNT
#	Creation time:	15. 06. 2019 19:35

#	Modifying user name:	WinNT
#	Modification time:	15. 06. 2019 19:35

#	Program:	/corina/corina34_cracker 3.40 0067  02.08.2006

@<TRIPOS>MOLECULE
ASD01816366
  50   55    0    0    0
SMALL
NO_CHARGES


@<TRIPOS>ATOM
   1 C1            -0.0167     1.3813     0.0096 C.ar    
   2 C2             0.0021    -0.0041     0.0020 C.ar    
   3 C3             1.1983    -0.6909    -0.0127 C.ar    
   4 C4             2.4015     0.0060    -0.0204 C.ar    
   5 C5             2.3790     1.4106    -0.0132 C.ar    
   6 C6             1.1663     2.0916     0.0022 C.ar    
   7 N7             3.6052    -0.6771    -0.0347 N.pl3   
   8 C8             4.7970    -0.0584    -0.0427 C.2     
   9 C9             4.9000     1.3104    -0.0368 C.2     
  10 C10            3.6670     2.1302    -0.0217 C.2     
  11 C11            5.9971     2.2731    -0.0415 C.2     
  12 N12            5.4244     3.4961    -0.0300 N.am    
  13 N13            4.0322     3.3798    -0.0183 N.2     
  14 O14            7.1911     2.0232    -0.0530 O.2     
  15 C15            3.5779    -2.1418    -0.0408 C.3     
  16 C16            3.5551    -2.6379    -1.4636 C.ar    
  17 C17            4.7428    -2.8874    -2.1264 C.ar    
  18 C18            4.7252    -3.3417    -3.4306 C.ar    
  19 C19            3.5134    -3.5482    -4.0760 C.ar    
  20 C20            2.3226    -3.2973    -3.4078 C.ar    
  21 C21            2.3466    -2.8480    -2.1019 C.ar    
  22 N22            3.4923    -4.0088    -5.3999 N.pl3   
  23 C23            2.3873    -4.2503    -6.1410 C.2     
  24 C24            2.7937    -4.6801    -7.3580 C.2     
  25 C25            4.1927    -4.7024    -7.3620 C.2     
  26 N26            4.6123    -4.2946    -6.1913 N.2     
  27 C27            6.1218     4.7007    -0.0293 C.ar    
  28 N28            7.4504     4.7106    -0.0458 N.ar    
  29 C29            5.4359     5.9157    -0.0169 C.ar    
  30 C30            6.1703     7.0864    -0.0166 C.ar    
  31 N31            7.4935     7.0207    -0.0279 N.ar    
  32 C32            8.1163     5.8535    -0.0451 C.ar    
  33 O33            9.4706     5.8282    -0.0563 O.3     
  34 H34           -0.9602     1.9068     0.0170 H       
  35 H35           -0.9289    -0.5516     0.0080 H       
  36 H36            1.2004    -1.7709    -0.0178 H       
  37 H37            1.1506     3.1715     0.0074 H       
  38 H38            5.6983    -0.6535    -0.0538 H       
  39 H39            4.4657    -2.5239     0.4631 H       
  40 H40            2.6861    -2.4907     0.4799 H       
  41 H41            5.6851    -2.7265    -1.6239 H       
  42 H42            5.6532    -3.5357    -3.9480 H       
  43 H43            1.3785    -3.4566    -3.9073 H       
  44 H44            1.4206    -2.6527    -1.5815 H       
  45 H45            1.3642    -4.1235    -5.8191 H       
  46 H46            2.1515    -4.9570    -8.1810 H       
  47 H47            4.8186    -5.0004    -8.1901 H       
  48 H48            4.3563     5.9407    -0.0081 H       
  49 H49            5.6712     8.0441    -0.0075 H       
  50 H50            9.8709     5.8117     0.8238 H       
@<TRIPOS>BOND
   1    1    2 ar
   2    1    6 ar
   3    1   34 1
   4    2    3 ar
   5    2   35 1
   6    3    4 ar
   7    3   36 1
   8    4    5 ar
   9    4    7 1
  10    5    6 ar
  11    5   10 1
  12    6   37 1
  13    7    8 1
  14    7   15 1
  15    8    9 2
  16    8   38 1
  17    9   10 1
  18    9   11 1
  19   10   13 2
  20   11   12 am
  21   11   14 2
  22   12   13 1
  23   12   27 1
  24   15   16 1
  25   15   39 1
  26   15   40 1
  27   16   17 ar
  28   16   21 ar
  29   17   18 ar
  30   17   41 1
  31   18   19 ar
  32   18   42 1
  33   19   20 ar
  34   19   22 1
  35   20   21 ar
  36   20   43 1
  37   21   44 1
  38   22   23 1
  39   22   26 1
  40   23   24 2
  41   23   45 1
  42   24   25 1
  43   24   46 1
  44   25   26 2
  45   25   47 1
  46   27   29 ar
  47   27   28 ar
  48   28   32 ar
  49   29   30 ar
  50   29   48 1
  51   30   31 ar
  52   30   49 1
  53   31   32 ar
  54   32   33 1
  55   33   50 1

#	End of record

