#	Name: ASD03912045
#	Creating user name:	WinNT
#	Creation time:	15. 06. 2019 20:47

#	Modifying user name:	WinNT
#	Modification time:	15. 06. 2019 20:47

#	Program:	/corina/corina34_cracker 3.40 0067  02.08.2006

@<TRIPOS>MOLECULE
ASD03912045
  71   73    0    0    0
SMALL
NO_CHARGES


@<TRIPOS>ATOM
   1 C1             1.7134    14.8555    -6.4048 C.ar    
   2 C2             2.9383    15.4658    -6.6031 C.ar    
   3 C3             4.0890    14.8963    -6.0898 C.ar    
   4 C4             4.0183    13.7152    -5.3775 C.ar    
   5 C5             2.7897    13.0997    -5.1765 C.ar    
   6 C6             1.6351    13.6775    -5.6881 C.ar    
   7 C7             0.4617    15.4797    -6.9660 C.3     
   8 C8             5.4218    15.5648    -6.3084 C.3     
   9 N9             2.7146    11.9031    -4.4552 N.am    
  10 C10            1.6435    11.6514    -3.6770 C.2     
  11 C11            1.5131    10.3207    -2.9818 C.3     
  12 O12            0.7844    12.4959    -3.5361 O.2     
  13 C13            0.2367    10.2952    -2.1811 C.ar    
  14 C14           -0.9341     9.8453    -2.7629 C.ar    
  15 C15           -2.1055     9.8209    -2.0310 C.ar    
  16 C16           -2.1064    10.2483    -0.7112 C.ar    
  17 C17           -0.9303    10.6991    -0.1296 C.ar    
  18 C18            0.2396    10.7163    -0.8641 C.ar    
  19 O19           -3.2576    10.2256     0.0108 O.3     
  20 C20           -3.1641    10.5794     1.3921 C.3     
  21 C21           -2.1685     9.6868     2.0871 C.2     
  22 C22           -2.7392    12.0518     1.5316 C.3     
  23 C23           -3.8786    12.7700     2.2837 C.3     
  24 C24           -4.5923    11.6375     3.0630 C.3     
  25 C25           -4.5467    10.4531     2.0647 C.3     
  26 N26           -2.0260     8.4045     1.6972 N.am    
  27 O27           -1.4954    10.1222     2.9971 O.2     
  28 C28           -0.9843     7.5677     2.2977 C.3     
  29 C29           -1.4988     6.9690     3.5814 C.2     
  30 O30           -2.6561     7.1165     3.8956 O.2     
  31 O31           -0.6713     6.2718     4.3758 O.3     
  32 C32           -0.6079     6.4466     1.3269 C.3     
  33 C33           -1.8413     5.5898     1.0345 C.3     
  34 C34            0.4159     5.9387    -0.8948 C.3     
  35 C35           -0.0883     7.0545     0.0226 C.3     
  36 H36            2.9963    16.3891    -7.1605 H       
  37 H37            4.9175    13.2705    -4.9774 H       
  38 H38            0.6781    13.2015    -5.5332 H       
  39 H39            0.2845    15.0976    -7.9713 H       
  40 H40           -0.3861    15.2306    -6.3278 H       
  41 H41            0.5816    16.5624    -7.0047 H       
  42 H42            5.6187    16.2586    -5.4911 H       
  43 H43            6.2066    14.8089    -6.3403 H       
  44 H44            5.4043    16.1104    -7.2518 H       
  45 H45            3.4335    11.2546    -4.5154 H       
  46 H46            1.4921     9.5233    -3.7246 H       
  47 H47            2.3631    10.1741    -2.3153 H       
  48 H48           -0.9330     9.5131    -3.7905 H       
  49 H49           -3.0199     9.4698    -2.4861 H       
  50 H50           -0.9285    11.0323     0.8977 H       
  51 H51            1.1554    11.0672    -0.4119 H       
  52 H52           -1.8133    12.1207     2.1026 H       
  53 H53           -2.6042    12.4964     0.5456 H       
  54 H54           -3.4732    13.5106     2.9731 H       
  55 H55           -4.5648    13.2391     1.5786 H       
  56 H56           -4.0480    11.3940     3.9754 H       
  57 H57           -5.6224    11.9135     3.2884 H       
  58 H58           -5.3407    10.5477     1.3240 H       
  59 H59           -4.6291     9.5042     2.5947 H       
  60 H60           -2.6133     8.0357     1.0189 H       
  61 H61           -0.1051     8.1769     2.5077 H       
  62 H62           -1.0470     5.9068     5.1886 H       
  63 H63            0.1687     5.8253     1.7729 H       
  64 H64           -1.5732     4.7911     0.3429 H       
  65 H65           -2.2115     5.1567     1.9638 H       
  66 H66           -2.6179     6.2112     0.5885 H       
  67 H67            1.2223     5.3977    -0.3995 H       
  68 H68           -0.4013     5.2517    -1.1144 H       
  69 H69            0.7861     6.3718    -1.8241 H       
  70 H70           -0.8947     7.5955    -0.4727 H       
  71 H71            0.7289     7.7416     0.2421 H       
@<TRIPOS>BOND
   1    1    2 ar
   2    1    7 1
   3    1    6 ar
   4    2    3 ar
   5    2   36 1
   6    3    4 ar
   7    3    8 1
   8    4    5 ar
   9    4   37 1
  10    5    6 ar
  11    5    9 1
  12    6   38 1
  13    7   39 1
  14    7   40 1
  15    7   41 1
  16    8   42 1
  17    8   43 1
  18    8   44 1
  19    9   10 am
  20    9   45 1
  21   10   11 1
  22   10   12 2
  23   11   13 1
  24   11   46 1
  25   11   47 1
  26   13   14 ar
  27   13   18 ar
  28   14   15 ar
  29   14   48 1
  30   15   16 ar
  31   15   49 1
  32   16   17 ar
  33   16   19 1
  34   17   18 ar
  35   17   50 1
  36   18   51 1
  37   19   20 1
  38   20   21 1
  39   20   22 1
  40   20   25 1
  41   21   26 am
  42   21   27 2
  43   22   23 1
  44   22   52 1
  45   22   53 1
  46   23   24 1
  47   23   54 1
  48   23   55 1
  49   24   25 1
  50   24   56 1
  51   24   57 1
  52   25   58 1
  53   25   59 1
  54   26   28 1
  55   26   60 1
  56   28   29 1
  57   28   32 1
  58   28   61 1
  59   29   30 2
  60   29   31 1
  61   31   62 1
  62   32   33 1
  63   32   35 1
  64   32   63 1
  65   33   64 1
  66   33   65 1
  67   33   66 1
  68   34   35 1
  69   34   67 1
  70   34   68 1
  71   34   69 1
  72   35   70 1
  73   35   71 1

#	End of record

