#	Name: ASD01200028
#	Creating user name:	WinNT
#	Creation time:	15. 06. 2019 19:08

#	Modifying user name:	WinNT
#	Modification time:	15. 06. 2019 19:08

#	Program:	/corina/corina34_cracker 3.40 0067  02.08.2006

@<TRIPOS>MOLECULE
ASD01200028
  39   42    0    0    0
SMALL
NO_CHARGES


@<TRIPOS>ATOM
   1 C1            -0.0945     1.4319    -0.6188 C.ar    
   2 C2            -0.0531     0.0369    -0.5695 C.ar    
   3 C3            -1.2210    -0.6694    -0.3696 C.ar    
   4 C4            -2.4144     0.0425    -0.2223 C.ar    
   5 C5            -2.3831     1.4413    -0.2824 C.ar    
   6 N6            -1.2325     2.0827    -0.4716 N.ar    
   7 C7            -3.6337     2.2095    -0.1289 C.2     
   8 N8            -3.6088     3.5558    -0.1860 N.am    
   9 C9            -4.7857     4.2788    -0.0416 C.2     
  10 S10           -3.9364    -0.8073     0.0347 S.3     
  11 C11           -3.4774    -2.5006    -0.1288 C.ar    
  12 S12            1.3961     2.3363    -0.8739 S.3     
  13 C13            0.8505     4.0116    -0.8602 C.2     
  14 N14           -4.8724     5.5718    -0.0801 N.2     
  15 C15           -6.0742     6.0949     0.0759 C.2     
  16 C16           -7.0492     5.2015     0.2548 C.2     
  17 S17           -6.3322     3.5930     0.2057 S.3     
  18 N18            1.6308     5.1209    -1.0190 N.pl3   
  19 C19            0.7798     6.1874    -0.9361 C.2     
  20 N20           -0.4185     5.7134    -0.7410 N.2     
  21 N21           -0.3837     4.4292    -0.7010 N.2     
  22 C22           -3.1344    -3.2407     0.9961 C.ar    
  23 C23           -2.7748    -4.5678     0.8656 C.ar    
  24 C24           -2.7556    -5.1615    -0.3827 C.ar    
  25 C25           -3.0963    -4.4274    -1.5073 C.ar    
  26 C26           -3.4631    -3.1000    -1.3823 C.ar    
  27 O27           -4.6866     1.6278     0.0491 O.2     
  28 F28           -3.0761    -5.0104    -2.7259 F       
  29 H29            0.8853    -0.4846    -0.6872 H       
  30 H30           -1.2132    -1.7485    -0.3283 H       
  31 H31           -2.7689     4.0198    -0.3280 H       
  32 H32           -6.2538     7.1597     0.0601 H       
  33 H33           -8.0957     5.4253     0.4000 H       
  34 H34            2.5900     5.1467    -1.1606 H       
  35 H35            1.0503     7.2298    -1.0172 H       
  36 H36           -3.1486    -2.7783     1.9720 H       
  37 H37           -2.5080    -5.1426     1.7402 H       
  38 H38           -2.4740    -6.1995    -0.4816 H       
  39 H39           -3.7292    -2.5276    -2.2586 H       
@<TRIPOS>BOND
   1    1    2 ar
   2    1   12 1
   3    1    6 ar
   4    2    3 ar
   5    2   29 1
   6    3    4 ar
   7    3   30 1
   8    4    5 ar
   9    4   10 1
  10    5    6 ar
  11    5    7 1
  12    7    8 am
  13    7   27 2
  14    8    9 1
  15    8   31 1
  16    9   14 2
  17    9   17 1
  18   10   11 1
  19   11   22 ar
  20   11   26 ar
  21   12   13 1
  22   13   18 1
  23   13   21 2
  24   14   15 1
  25   15   16 2
  26   15   32 1
  27   16   17 1
  28   16   33 1
  29   18   19 1
  30   18   34 1
  31   19   20 2
  32   19   35 1
  33   20   21 1
  34   22   23 ar
  35   22   36 1
  36   23   24 ar
  37   23   37 1
  38   24   25 ar
  39   24   38 1
  40   25   26 ar
  41   25   28 1
  42   26   39 1

#	End of record

