#	Name: ASD01883793
#	Creating user name:	WinNT
#	Creation time:	15. 06. 2019 19:47

#	Modifying user name:	WinNT
#	Modification time:	15. 06. 2019 19:47

#	Program:	/corina/corina34_cracker 3.40 0067  02.08.2006

@<TRIPOS>MOLECULE
ASD01883793
  60   64    0    0    0
SMALL
NO_CHARGES


@<TRIPOS>ATOM
   1 C1            -0.8706     1.6124    -0.9357 C.ar    
   2 C2            -0.7873     0.2251    -0.9353 C.ar    
   3 C3             0.4409    -0.3995    -1.1290 C.ar    
   4 C4             1.5706     0.3564    -1.3210 C.ar    
   5 C5             1.4956     1.7532    -1.3233 C.ar    
   6 C6             0.2595     2.3756    -1.1278 C.ar    
   7 C7             3.0195     0.0075    -1.5541 C.3     
   8 N8             3.7324     1.2835    -1.6838 N.am    
   9 C9             2.8494     2.2879    -1.5501 C.2     
  10 O10            3.1285     3.4699    -1.6076 O.2     
  11 O11           -1.9048    -0.5211    -0.7453 O.3     
  12 C12           -3.1317     0.1856    -0.5522 C.3     
  13 C13           -4.2546    -0.8008    -0.3590 C.ar    
  14 C14           -4.5751    -1.2397     0.9095 C.ar    
  15 C15           -5.6139    -2.1514     1.0867 C.ar    
  16 C16           -6.3234    -2.6149    -0.0190 C.ar    
  17 C17           -5.9943    -2.1692    -1.2833 C.ar    
  18 C18           -4.9658    -1.2603    -1.4530 C.ar    
  19 C19           -5.9628    -2.6273     2.4484 C.ar    
  20 C20           -6.2735    -1.7117     3.4477 C.ar    
  21 C21           -6.6009    -2.1664     4.7247 C.ar    
  22 C22           -6.6146    -3.5373     4.9915 C.ar    
  23 C23           -6.3045    -4.4397     3.9939 C.ar    
  24 C24           -5.9852    -3.9939     2.7262 C.ar    
  25 C25            5.1700     1.4372    -1.9203 C.3     
  26 C26            5.4093     2.1984    -3.2360 C.3     
  27 C27            6.1786     3.4839    -2.8677 C.3     
  28 C28            6.8704     3.1410    -1.5250 C.3     
  29 C29            5.8022     2.2867    -0.7984 C.3     
  30 C30           -5.6480    -4.9863     1.6434 C.3     
  31 C31           -6.9319    -1.2005     5.7927 C.2     
  32 O32           -7.2479    -1.6418     7.0256 O.3     
  33 O33           -6.9191    -0.0086     5.5589 O.2     
  34 H34           -1.8262     2.0938    -0.7892 H       
  35 H35            0.5055    -1.4776    -1.1279 H       
  36 H36            0.1906     3.4534    -1.1282 H       
  37 H37            3.4103    -0.5555    -0.7065 H       
  38 H38            3.1222    -0.5739    -2.4703 H       
  39 H39           -3.0502     0.8207     0.3299 H       
  40 H40           -3.3369     0.8030    -1.4268 H       
  41 H41           -4.0216    -0.8774     1.7632 H       
  42 H42           -7.1292    -3.3218     0.1128 H       
  43 H43           -6.5437    -2.5278    -2.1412 H       
  44 H44           -4.7116    -0.9142    -2.4439 H       
  45 H45           -6.2610    -0.6527     3.2358 H       
  46 H46           -6.8678    -3.8918     5.9797 H       
  47 H47           -6.3155    -5.4989     4.2045 H       
  48 H48            5.6479     0.4585    -1.9629 H       
  49 H49            6.0041     1.5895    -3.9168 H       
  50 H50            4.4559     2.4535    -3.6985 H       
  51 H51            6.9212     3.7160    -3.6311 H       
  52 H52            5.4886     4.3178    -2.7392 H       
  53 H53            7.7781     2.5619    -1.6949 H       
  54 H54            7.0893     4.0475    -0.9607 H       
  55 H55            5.0514     2.9273    -0.3358 H       
  56 H56            6.2700     1.6451    -0.0517 H       
  57 H57           -6.5398    -5.1970     1.0531 H       
  58 H58           -4.8746    -4.5706     0.9975 H       
  59 H59           -5.2857    -5.9091     2.0964 H       
  60 H60           -7.4570    -0.9723     7.6913 H       
@<TRIPOS>BOND
   1    1    2 ar
   2    1    6 ar
   3    1   34 1
   4    2    3 ar
   5    2   11 1
   6    3    4 ar
   7    3   35 1
   8    4    5 ar
   9    4    7 1
  10    5    6 ar
  11    5    9 1
  12    6   36 1
  13    7    8 1
  14    7   37 1
  15    7   38 1
  16    8    9 am
  17    8   25 1
  18    9   10 2
  19   11   12 1
  20   12   13 1
  21   12   39 1
  22   12   40 1
  23   13   14 ar
  24   13   18 ar
  25   14   15 ar
  26   14   41 1
  27   15   16 ar
  28   15   19 1
  29   16   17 ar
  30   16   42 1
  31   17   18 ar
  32   17   43 1
  33   18   44 1
  34   19   20 ar
  35   19   24 ar
  36   20   21 ar
  37   20   45 1
  38   21   22 ar
  39   21   31 1
  40   22   23 ar
  41   22   46 1
  42   23   24 ar
  43   23   47 1
  44   24   30 1
  45   25   26 1
  46   25   29 1
  47   25   48 1
  48   26   27 1
  49   26   49 1
  50   26   50 1
  51   27   28 1
  52   27   51 1
  53   27   52 1
  54   28   29 1
  55   28   53 1
  56   28   54 1
  57   29   55 1
  58   29   56 1
  59   30   57 1
  60   30   58 1
  61   30   59 1
  62   31   32 1
  63   31   33 2
  64   32   60 1

#	End of record

