#	Name: ASD02198882
#	Creating user name:	WinNT
#	Creation time:	15. 06. 2019 20:20

#	Modifying user name:	WinNT
#	Modification time:	15. 06. 2019 20:20

#	Program:	/corina/corina34_cracker 3.40 0067  02.08.2006

@<TRIPOS>MOLECULE
ASD02198882
  52   56    0    0    0
SMALL
NO_CHARGES


@<TRIPOS>ATOM
   1 F1             3.3636     0.2895     3.1553 F       
   2 C2             0.4095     2.7444     0.4103 C.2     
   3 C3             0.5765     1.4650     0.8299 C.2     
   4 N4             1.8129     0.9321     0.9544 N.pl3   
   5 N5             2.8880     1.5789     0.6919 N.2     
   6 C6             2.8688     2.8271     0.2759 C.2     
   7 C7             1.5694     3.4976     0.1086 C.2     
   8 C8             1.9245    -0.3919     1.3923 C.ar    
   9 C9             2.7090    -0.6947     2.5011 C.ar    
  10 C10            2.8182    -2.0033     2.9323 C.ar    
  11 C11            2.1453    -3.0142     2.2591 C.ar    
  12 C12            1.3627    -2.7111     1.1519 C.ar    
  13 C13            1.2476    -1.4045     0.7238 C.ar    
  14 C14            4.1276     3.5421    -0.0168 C.2     
  15 N15            4.4586     4.1555    -1.1923 N.pl3   
  16 N16            5.7365     4.7079    -1.0402 N.2     
  17 C17            6.1672     4.4462     0.1681 C.2     
  18 C18            5.1868     3.7213     0.8458 C.2     
  19 C19            3.6625     4.2202    -2.3429 C.ar    
  20 C20            3.5559     5.4110    -3.0490 C.ar    
  21 C21            2.7705     5.4722    -4.1838 C.ar    
  22 C22            2.0903     4.3494    -4.6170 C.ar    
  23 C23            2.1941     3.1605    -3.9157 C.ar    
  24 C24            2.9829     3.0919    -2.7829 C.ar    
  25 O25            1.4950     4.6554    -0.2752 O.2     
  26 N26            2.2561    -4.3412     2.6964 N.pl3   
  27 N27            2.3368    -5.4757     1.8787 N.2     
  28 Cl28           1.3377     1.7530    -4.4628 Cl      
  29 C29            2.4299    -6.5317     2.6460 C.2     
  30 C30            2.4122    -6.1122     3.9799 C.2     
  31 C31            2.3104    -4.7565     3.9900 C.2     
  32 O32            2.2629    -3.9632     5.0906 O.3     
  33 C33            2.4104    -4.6042     6.3592 C.3     
  34 F34            1.4135    -5.5739     6.5104 F       
  35 F35            3.6679    -5.2131     6.4306 F       
  36 C36            7.4998     4.8633     0.7349 C.3     
  37 H37           -0.5764     3.1727     0.3057 H       
  38 H38           -0.2892     0.8646     1.0679 H       
  39 H39            3.4270    -2.2395     3.7925 H       
  40 H40            0.8404    -3.4984     0.6286 H       
  41 H41            0.6387    -1.1701    -0.1368 H       
  42 H42            5.2494     3.3602     1.8617 H       
  43 H43            4.0864     6.2889    -2.7111 H       
  44 H44            2.6876     6.3984    -4.7330 H       
  45 H45            1.4763     4.4000    -5.5041 H       
  46 H46            3.0639     2.1643    -2.2358 H       
  47 H47            2.5069    -7.5540     2.3066 H       
  48 H48            2.4729    -6.7517     4.8482 H       
  49 H49            2.3200    -3.8631     7.1534 H       
  50 H50            7.4028     5.8392     1.2106 H       
  51 H51            7.8264     4.1303     1.4726 H       
  52 H52            8.2340     4.9221    -0.0686 H       
@<TRIPOS>BOND
   1    1    9 1
   2    2    3 2
   3    2    7 1
   4    2   37 1
   5    3    4 1
   6    3   38 1
   7    4    5 1
   8    4    8 1
   9    5    6 2
  10    6    7 1
  11    6   14 1
  12    7   25 2
  13    8    9 ar
  14    8   13 ar
  15    9   10 ar
  16   10   11 ar
  17   10   39 1
  18   11   12 ar
  19   11   26 1
  20   12   13 ar
  21   12   40 1
  22   13   41 1
  23   14   15 1
  24   14   18 2
  25   15   16 1
  26   15   19 1
  27   16   17 2
  28   17   18 1
  29   17   36 1
  30   18   42 1
  31   19   20 ar
  32   19   24 ar
  33   20   21 ar
  34   20   43 1
  35   21   22 ar
  36   21   44 1
  37   22   23 ar
  38   22   45 1
  39   23   24 ar
  40   23   28 1
  41   24   46 1
  42   26   27 1
  43   26   31 1
  44   27   29 2
  45   29   30 1
  46   29   47 1
  47   30   31 2
  48   30   48 1
  49   31   32 1
  50   32   33 1
  51   33   34 1
  52   33   35 1
  53   33   49 1
  54   36   50 1
  55   36   51 1
  56   36   52 1

#	End of record

