#	Name: ASD01410338
#	Creating user name:	WinNT
#	Creation time:	15. 06. 2019 19:17

#	Modifying user name:	WinNT
#	Modification time:	15. 06. 2019 19:17

#	Program:	/corina/corina34_cracker 3.40 0067  02.08.2006

@<TRIPOS>MOLECULE
ASD01410338
  74   79    0    0    0
SMALL
NO_CHARGES


@<TRIPOS>ATOM
   1 O1            -0.2955     1.2050    -0.7680 O.3     
   2 C2            -0.2500    -0.1345    -0.7687 C.2     
   3 C3             1.0481    -0.5207    -0.6347 C.2     
   4 C4             1.8258     0.7221    -0.5484 C.2     
   5 C5             0.9352     1.7234    -0.6373 C.2     
   6 N6             2.6674    -2.3644    -1.2695 N.pl3   
   7 C7             1.5676    -1.9041    -0.5861 C.2     
   8 C8             1.0332    -2.9184     0.1414 C.2     
   9 C9             1.8190    -4.0738    -0.0830 C.ar    
  10 C10            2.8416    -3.7036    -0.9805 C.ar    
  11 C11            1.7476    -5.3916     0.3923 C.ar    
  12 C12            2.6675    -6.3108    -0.0083 C.ar    
  13 C13            3.6919    -5.9502    -0.8970 C.ar    
  14 C14            3.7731    -4.6457    -1.3842 C.ar    
  15 C15           -1.2491    -3.8058     0.5327 C.3     
  16 C16           -2.4817    -3.7157     1.4346 C.3     
  17 C17           -2.0909    -4.0747     2.8697 C.3     
  18 C18           -1.0227    -3.0986     3.3668 C.3     
  19 C19            0.2099    -3.1887     2.4648 C.3     
  20 C20           -0.1809    -2.8297     1.0298 C.3     
  21 C21            3.5121    -1.5674    -2.1625 C.3     
  22 C22            4.6315    -0.9427    -1.3702 C.2     
  23 O23            4.7154    -1.1434    -0.1771 O.2     
  24 N24            5.5393    -0.1609    -1.9875 N.am    
  25 C25            6.6363     0.4551    -1.2285 C.3     
  26 C26            6.6308     1.9644    -1.4911 C.3     
  27 C27            6.6913     2.2159    -2.9994 C.3     
  28 C28            5.4591     1.6045    -3.6701 C.3     
  29 C29            5.4544     0.0867    -3.4332 C.3     
  30 C30            8.3513     5.4296    -3.5862 C.3     
  31 C31            7.9208     4.2826    -2.6532 C.3     
  32 N32            6.7198     3.6625    -3.2536 N.3     
  33 C33            6.8026     3.9456    -4.7093 C.3     
  34 C34            7.3434     5.3968    -4.7580 C.3     
  35 C35            4.6818    -6.9552    -1.3223 C.2     
  36 O36            5.5700    -6.6456    -2.0918 O.2     
  37 O37            4.6024    -8.2180    -0.8579 O.3     
  38 H38           -1.0994    -0.7953    -0.8598 H       
  39 H39            2.8961     0.8125    -0.4362 H       
  40 H40            1.1716     2.7768    -0.6088 H       
  41 H41            0.9623    -5.6767     1.0767 H       
  42 H42            2.6090    -7.3242     0.3604 H       
  43 H43            4.5620    -4.3702    -2.0683 H       
  44 H44           -0.8536    -4.8212     0.5583 H       
  45 H45           -1.5275    -3.5500    -0.4896 H       
  46 H46           -2.8772    -2.7003     1.4090 H       
  47 H47           -3.2427    -4.4110     1.0805 H       
  48 H48           -2.9690    -4.0105     3.5122 H       
  49 H49           -1.6954    -5.0901     2.8953 H       
  50 H50           -1.4182    -2.0832     3.3411 H       
  51 H51           -0.7443    -3.3544     4.3891 H       
  52 H52            0.9709    -2.4933     2.8190 H       
  53 H53            0.6054    -4.2041     2.4904 H       
  54 H54           -0.5764    -1.8143     1.0042 H       
  55 H55            3.9301    -2.2104    -2.9371 H       
  56 H56            2.9130    -0.7832    -2.6254 H       
  57 H57            6.4937     0.2689    -0.1640 H       
  58 H58            7.5872     0.0314    -1.5516 H       
  59 H59            5.7180     2.4009    -1.0858 H       
  60 H60            7.4969     2.4202    -1.0112 H       
  61 H61            7.5920     1.7579    -3.4081 H       
  62 H62            4.5572     2.0444    -3.2443 H       
  63 H63            5.4911     1.8043    -4.7412 H       
  64 H64            6.3091    -0.3644    -3.9374 H       
  65 H65            4.5305    -0.3411    -3.8224 H       
  66 H66            8.2930     6.3844    -3.0637 H       
  67 H67            9.3635     5.2593    -3.9530 H       
  68 H68            8.7205     3.5458    -2.5771 H       
  69 H69            7.6808     4.6773    -1.6659 H       
  70 H70            7.4965     3.2600    -5.1957 H       
  71 H71            5.8162     3.8870    -5.1694 H       
  72 H72            6.5388     6.1139    -4.5950 H       
  73 H73            7.8469     5.5892    -5.7054 H       
  74 H74            5.2742    -8.8419    -1.1653 H       
@<TRIPOS>BOND
   1    1    2 1
   2    1    5 1
   3    2    3 2
   4    2   38 1
   5    3    4 1
   6    3    7 1
   7    4    5 2
   8    4   39 1
   9    5   40 1
  10    6    7 1
  11    6   21 1
  12    6   10 1
  13    7    8 2
  14    8    9 1
  15    8   20 1
  16    9   10 ar
  17    9   11 ar
  18   10   14 ar
  19   11   12 ar
  20   11   41 1
  21   12   13 ar
  22   12   42 1
  23   13   14 ar
  24   13   35 1
  25   14   43 1
  26   15   16 1
  27   15   20 1
  28   15   44 1
  29   15   45 1
  30   16   17 1
  31   16   46 1
  32   16   47 1
  33   17   18 1
  34   17   48 1
  35   17   49 1
  36   18   19 1
  37   18   50 1
  38   18   51 1
  39   19   20 1
  40   19   52 1
  41   19   53 1
  42   20   54 1
  43   21   22 1
  44   21   55 1
  45   21   56 1
  46   22   23 2
  47   22   24 am
  48   24   25 1
  49   24   29 1
  50   25   26 1
  51   25   57 1
  52   25   58 1
  53   26   27 1
  54   26   59 1
  55   26   60 1
  56   27   28 1
  57   27   32 1
  58   27   61 1
  59   28   29 1
  60   28   62 1
  61   28   63 1
  62   29   64 1
  63   29   65 1
  64   30   31 1
  65   30   34 1
  66   30   66 1
  67   30   67 1
  68   31   32 1
  69   31   68 1
  70   31   69 1
  71   32   33 1
  72   33   34 1
  73   33   70 1
  74   33   71 1
  75   34   72 1
  76   34   73 1
  77   35   36 2
  78   35   37 1
  79   37   74 1

#	End of record

