#	Name: ASD04590132
#	Creating user name:	WinNT
#	Creation time:	15. 06. 2019 20:50

#	Modifying user name:	WinNT
#	Modification time:	15. 06. 2019 20:50

#	Program:	/corina/corina34_cracker 3.40 0067  02.08.2006

@<TRIPOS>MOLECULE
ASD04590132
  42   44    0    0    0
SMALL
NO_CHARGES


@<TRIPOS>ATOM
   1 N1            -0.0153     1.2802     0.0091 N.pl3   
   2 N2             0.0021    -0.0041     0.0020 N.2     
   3 C3             1.2455    -0.4440    -0.0122 C.2     
   4 C4             2.0903     0.6961    -0.0142 C.2     
   5 C5             1.2523     1.7667    -0.0004 C.2     
   6 C6             1.6764    -1.8547    -0.0239 C.2     
   7 N7             0.7571    -2.8402    -0.0209 N.am    
   8 O8             2.8611    -2.1284    -0.0362 O.2     
   9 N9             3.4929     0.7146    -0.0270 N.am    
  10 C10            4.1513     1.8906    -0.0271 C.2     
  11 C11            6.3412     1.9132     1.1611 C.ar    
  12 C12            5.6278     1.9101    -0.0406 C.ar    
  13 C13            1.1850    -4.2412    -0.0325 C.3     
  14 C14            0.0889    -5.1157     0.5827 C.3     
  15 C15            0.5184    -6.5837     0.5120 C.3     
  16 C16            0.7894    -6.9612    -0.9461 C.3     
  17 N17            1.8454    -6.0970    -1.4887 N.3     
  18 C18            1.4367    -4.6867    -1.4749 C.3     
  19 C19            7.7219     1.9310     1.1402 C.ar    
  20 C20            8.3988     1.9463    -0.0661 C.ar    
  21 C21            7.6997     1.9429    -1.2598 C.ar    
  22 C22            6.3189     1.9252    -1.2553 C.ar    
  23 O23            3.5296     2.9355    -0.0159 O.2     
  24 Cl24           5.4939     1.9018     2.6762 Cl      
  25 Cl25           5.4437     1.9210    -2.7545 Cl      
  26 H26           -0.8184     1.8242     0.0160 H       
  27 H27            1.5405     2.8076     0.0021 H       
  28 H28           -0.1880    -2.6218    -0.0111 H       
  29 H29            3.9889    -0.1189    -0.0359 H       
  30 H30            2.1024    -4.3463     0.5467 H       
  31 H31           -0.0632    -4.8304     1.6236 H       
  32 H32           -0.8393    -4.9806     0.0275 H       
  33 H33            1.4255    -6.7262     1.0994 H       
  34 H34           -0.2763    -7.2149     0.9097 H       
  35 H35            1.1092    -8.0020    -0.9984 H       
  36 H36           -0.1218    -6.8317    -1.5302 H       
  37 H37            2.7119    -6.2273    -0.9884 H       
  38 H38            0.5225    -4.5677    -2.0564 H       
  39 H39            2.2266    -4.0753    -1.9112 H       
  40 H40            8.2746     1.9334     2.0680 H       
  41 H41            9.4786     1.9610    -0.0760 H       
  42 H42            8.2351     1.9550    -2.1976 H       
@<TRIPOS>BOND
   1    1    2 1
   2    1    5 1
   3    1   26 1
   4    2    3 2
   5    3    4 1
   6    3    6 1
   7    4    5 2
   8    4    9 1
   9    5   27 1
  10    6    7 am
  11    6    8 2
  12    7   13 1
  13    7   28 1
  14    9   10 am
  15    9   29 1
  16   10   23 2
  17   10   12 1
  18   11   12 ar
  19   11   19 ar
  20   11   24 1
  21   12   22 ar
  22   13   14 1
  23   13   18 1
  24   13   30 1
  25   14   15 1
  26   14   31 1
  27   14   32 1
  28   15   16 1
  29   15   33 1
  30   15   34 1
  31   16   17 1
  32   16   35 1
  33   16   36 1
  34   17   18 1
  35   17   37 1
  36   18   38 1
  37   18   39 1
  38   19   20 ar
  39   19   40 1
  40   20   21 ar
  41   20   41 1
  42   21   22 ar
  43   21   42 1
  44   22   25 1

#	End of record

