#	Name: ASD01914227
#	Creating user name:	WinNT
#	Creation time:	15. 06. 2019 20:03

#	Modifying user name:	WinNT
#	Modification time:	15. 06. 2019 20:03

#	Program:	/corina/corina34_cracker 3.40 0067  02.08.2006

@<TRIPOS>MOLECULE
ASD01914227
  32   34    0    0    0
SMALL
NO_CHARGES


@<TRIPOS>ATOM
   1 C1            -0.0170     1.4051     0.0098 C.2     
   2 C2             0.0021    -0.0041     0.0020 C.2     
   3 C3             1.1968    -0.6541    -0.0129 C.2     
   4 C4             2.3912     0.0853    -0.0203 C.2     
   5 C5             2.3569     1.4343    -0.0123 C.2     
   6 N6             1.1651     2.0992     0.0022 N.pl3   
   7 N7            -1.0090     2.2842     0.0293 N.2     
   8 C8            -0.5004     3.5187     0.0287 C.2     
   9 C9             0.8476     3.4301     0.0128 C.2     
  10 C10           -1.2972     4.7977     0.0476 C.3     
  11 C11           -2.2868     4.7994    -1.1192 C.3     
  12 C12           -3.0651     6.0487    -1.1008 C.1     
  13 C13           -3.6858     7.0450    -1.0861 C.1     
  14 S14           -5.3947    10.5295    -0.4911 S.3     
  15 C15           -5.9913     9.6676    -1.8409 C.2     
  16 N16           -5.3802     8.5411    -1.9639 N.2     
  17 C17           -4.4430     8.2604    -1.0682 C.2     
  18 C18           -4.2663     9.2236    -0.1379 C.2     
  19 C19           -7.0812    10.1578    -2.7590 C.3     
  20 H20           -0.9225    -0.5622     0.0082 H       
  21 H21            1.2270    -1.7337    -0.0186 H       
  22 H22            3.3412    -0.4283    -0.0321 H       
  23 H23            3.2812     1.9930    -0.0178 H       
  24 H24            1.5443     4.2554     0.0107 H       
  25 H25           -1.8439     4.8714     0.9877 H       
  26 H26           -0.6219     5.6480    -0.0476 H       
  27 H27           -1.7402     4.7257    -2.0594 H       
  28 H28           -2.9622     3.9491    -1.0240 H       
  29 H29           -3.5583     9.1981     0.6773 H       
  30 H30           -7.4223    11.1383    -2.4270 H       
  31 H31           -6.6939    10.2326    -3.7752 H       
  32 H32           -7.9157     9.4568    -2.7390 H       
@<TRIPOS>BOND
   1    1    2 1
   2    1    6 1
   3    1    7 2
   4    2    3 2
   5    2   20 1
   6    3    4 1
   7    3   21 1
   8    4    5 2
   9    4   22 1
  10    5    6 1
  11    5   23 1
  12    6    9 1
  13    7    8 1
  14    8    9 2
  15    8   10 1
  16    9   24 1
  17   10   11 1
  18   10   25 1
  19   10   26 1
  20   11   12 1
  21   11   27 1
  22   11   28 1
  23   12   13 3
  24   13   17 1
  25   14   15 1
  26   14   18 1
  27   15   16 2
  28   15   19 1
  29   16   17 1
  30   17   18 2
  31   18   29 1
  32   19   30 1
  33   19   31 1
  34   19   32 1

#	End of record

