#	Name: ASD00431100
#	Creating user name:	WinNT
#	Creation time:	15. 06. 2019 18:35

#	Modifying user name:	WinNT
#	Modification time:	15. 06. 2019 18:35

#	Program:	/corina/corina34_cracker 3.40 0067  02.08.2006

@<TRIPOS>MOLECULE
ASD00431100
  47   49    0    0    0
SMALL
NO_CHARGES


@<TRIPOS>ATOM
   1 C1            -0.2073     1.7096     0.1481 C.3     
   2 C2            -0.1994     0.1800     0.1176 C.3     
   3 C3             1.2102     2.2201     0.1160 C.ar    
   4 C4             1.8226     2.6253     1.2841 C.ar    
   5 C5             3.1357     3.0973     1.2526 C.ar    
   6 C6             3.8208     3.1561     0.0376 C.ar    
   7 C7             3.1969     2.7479    -1.1228 C.ar    
   8 C8             1.8966     2.2760    -1.0838 C.ar    
   9 S9             3.0830     3.5258     4.1103 S.3     
  10 C10            4.5300     4.1550     4.7679 C.2     
  11 N11            5.4113     4.3290     3.8326 N.2     
  12 C12            5.0558     4.0077     2.6066 C.2     
  13 C13            3.7978     3.5335     2.5000 C.2     
  14 O14            4.7277     4.4330     6.0789 O.3     
  15 C15            5.9679     4.8332     6.4666 C.ar    
  16 C16            6.4770     6.0442     6.0206 C.ar    
  17 C17            7.7369     6.4506     6.4145 C.ar    
  18 C18            8.4931     5.6480     7.2560 C.ar    
  19 C19            7.9841     4.4372     7.7020 C.ar    
  20 C20            6.7220     4.0333     7.3128 C.ar    
  21 O21            9.7336     6.0480     7.6434 O.3     
  22 C22           10.2500     7.2361     7.0401 C.3     
  23 C23            9.9299     8.4398     7.9286 C.3     
  24 C24           11.7663     7.1091     6.8802 C.3     
  25 N25           -0.9377     2.2189    -1.0202 N.3     
  26 H26           -0.6963     2.0523     1.0600 H       
  27 H27           -1.2247    -0.1892     0.1408 H       
  28 H28            0.2896    -0.1627    -0.7943 H       
  29 H29            0.3426    -0.1979     0.9845 H       
  30 H30            1.2869     2.5776     2.2207 H       
  31 H31            4.8369     3.5207     0.0064 H       
  32 H32            3.7258     2.7929    -2.0634 H       
  33 H33            1.4141     1.9538    -1.9947 H       
  34 H34            5.7153     4.1150     1.7582 H       
  35 H35            5.8884     6.6689     5.3652 H       
  36 H36            8.1334     7.3932     6.0671 H       
  37 H37            8.5731     3.8122     8.3569 H       
  38 H38            6.3239     3.0926     7.6636 H       
  39 H39            9.7917     7.3751     6.0609 H       
  40 H40           10.3881     8.3008     8.9077 H       
  41 H41           10.3238     9.3460     7.4684 H       
  42 H42            8.8496     8.5302     8.0425 H       
  43 H43           11.9944     6.2516     6.2472 H       
  44 H44           12.1602     8.0153     6.4200 H       
  45 H45           12.2246     6.9701     7.8593 H       
  46 H46           -0.4680     1.9690    -1.8775 H       
  47 H47           -1.8918     1.8904    -1.0217 H       
@<TRIPOS>BOND
   1    1    2 1
   2    1    3 1
   3    1   25 1
   4    1   26 1
   5    2   27 1
   6    2   28 1
   7    2   29 1
   8    3    4 ar
   9    3    8 ar
  10    4    5 ar
  11    4   30 1
  12    5    6 ar
  13    5   13 1
  14    6    7 ar
  15    6   31 1
  16    7    8 ar
  17    7   32 1
  18    8   33 1
  19    9   10 1
  20    9   13 1
  21   10   11 2
  22   10   14 1
  23   11   12 1
  24   12   13 2
  25   12   34 1
  26   14   15 1
  27   15   16 ar
  28   15   20 ar
  29   16   17 ar
  30   16   35 1
  31   17   18 ar
  32   17   36 1
  33   18   19 ar
  34   18   21 1
  35   19   20 ar
  36   19   37 1
  37   20   38 1
  38   21   22 1
  39   22   23 1
  40   22   24 1
  41   22   39 1
  42   23   40 1
  43   23   41 1
  44   23   42 1
  45   24   43 1
  46   24   44 1
  47   24   45 1
  48   25   46 1
  49   25   47 1

#	End of record

