#	Name: ASD01200186
#	Creating user name:	WinNT
#	Creation time:	15. 06. 2019 19:08

#	Modifying user name:	WinNT
#	Modification time:	15. 06. 2019 19:08

#	Program:	/corina/corina34_cracker 3.40 0067  02.08.2006

@<TRIPOS>MOLECULE
ASD01200186
  44   46    0    0    0
SMALL
NO_CHARGES


@<TRIPOS>ATOM
   1 C1             0.9397     1.4233    -1.7706 C.2     
   2 C2             0.8835    -0.0730    -1.6007 C.3     
   3 O3             1.5052     2.1067    -0.9436 O.2     
   4 N4             0.3664     2.0016    -2.8446 N.am    
   5 C5             0.3267     3.3911    -2.9500 C.ar    
   6 C6            -0.1628     3.9801    -4.1104 C.ar    
   7 C7            -0.1966     5.3603    -4.2018 C.ar    
   8 C8             0.2624     6.1069    -3.1250 C.ar    
   9 C9             0.7353     5.4553    -2.0033 C.ar    
  10 N10            0.7504     4.1374    -1.9425 N.ar    
  11 S11            1.7449    -0.5410    -0.0744 S.3     
  12 N12            2.6810    -3.0688    -0.2158 N.am    
  13 C13            1.4393    -2.3257     0.0358 C.3     
  14 C14            1.0140    -2.6960     1.4377 C.2     
  15 C15            1.9199    -3.5481     1.9067 C.2     
  16 C16            2.9524    -3.7836     0.8923 C.2     
  17 C17            3.4741    -3.0421    -1.4473 C.3     
  18 C18            4.5016    -1.9432    -1.3593 C.2     
  19 C19            5.7357    -2.0816    -0.8724 C.2     
  20 C20            6.5036    -0.9301    -0.8935 C.2     
  21 C21            5.8931     0.1434    -1.3975 C.2     
  22 S22            4.2595    -0.2838    -1.8898 S.3     
  23 O23            3.9124    -4.5171     1.0313 O.2     
  24 C24            1.8902    -4.1781     3.2754 C.3     
  25 C25           -0.2059    -2.1939     2.1663 C.3     
  26 H26           -0.1568    -0.3934    -1.5436 H       
  27 H27            1.3655    -0.5537    -2.4520 H       
  28 H28           -0.0187     1.4509    -3.5442 H       
  29 H29           -0.5116     3.3686    -4.9294 H       
  30 H30           -0.5711     5.8458    -5.0909 H       
  31 H31            0.2499     7.1861    -3.1645 H       
  32 H32            1.0936     6.0318    -1.1633 H       
  33 H33            0.6729    -2.6204    -0.6810 H       
  34 H34            3.9771    -4.0004    -1.5764 H       
  35 H35            2.8179    -2.8586    -2.2981 H       
  36 H36            6.1075    -3.0209    -0.4904 H       
  37 H37            7.5199    -0.9029    -0.5292 H       
  38 H38            6.3355     1.1241    -1.4921 H       
  39 H39            1.3370    -5.1162     3.2316 H       
  40 H40            2.9098    -4.3727     3.6080 H       
  41 H41            1.4023    -3.5010     3.9765 H       
  42 H42           -1.0217    -2.9061     2.0426 H       
  43 H43            0.0234    -2.0845     3.2262 H       
  44 H44           -0.5017    -1.2280     1.7569 H       
@<TRIPOS>BOND
   1    1    2 1
   2    1    3 2
   3    1    4 am
   4    2   11 1
   5    2   26 1
   6    2   27 1
   7    4    5 1
   8    4   28 1
   9    5    6 ar
  10    5   10 ar
  11    6    7 ar
  12    6   29 1
  13    7    8 ar
  14    7   30 1
  15    8    9 ar
  16    8   31 1
  17    9   10 ar
  18    9   32 1
  19   11   13 1
  20   12   13 1
  21   12   16 am
  22   12   17 1
  23   13   14 1
  24   13   33 1
  25   14   15 2
  26   14   25 1
  27   15   16 1
  28   15   24 1
  29   16   23 2
  30   17   18 1
  31   17   34 1
  32   17   35 1
  33   18   19 2
  34   18   22 1
  35   19   20 1
  36   19   36 1
  37   20   21 2
  38   20   37 1
  39   21   22 1
  40   21   38 1
  41   24   39 1
  42   24   40 1
  43   24   41 1
  44   25   42 1
  45   25   43 1
  46   25   44 1

#	End of record

