#	Name: ASD01916171
#	Creating user name:	WinNT
#	Creation time:	15. 06. 2019 20:06

#	Modifying user name:	WinNT
#	Modification time:	15. 06. 2019 20:06

#	Program:	/corina/corina34_cracker 3.40 0067  02.08.2006

@<TRIPOS>MOLECULE
ASD01916171
  40   42    0    0    0
SMALL
NO_CHARGES


@<TRIPOS>ATOM
   1 C1            -0.4103     1.7401     0.1049 C.ar    
   2 C2            -0.5429     0.3898     0.3736 C.ar    
   3 N3             0.5002    -0.3402     0.7069 N.ar    
   4 C4             1.7181     0.1813     0.7999 C.ar    
   5 C5             1.9315     1.5322     0.5446 C.ar    
   6 C6             0.8476     2.3311     0.1896 C.ar    
   7 C7            -1.9021    -0.2549     0.2838 C.3     
   8 O8             1.0133     3.6535    -0.0675 O.3     
   9 C9             2.2650     4.1722     0.0384 C.ar    
  10 C10            3.1952     3.9764    -0.9721 C.ar    
  11 N11            4.4110     4.4766    -0.8748 N.ar    
  12 C12            4.7921     5.1774     0.1748 C.ar    
  13 C13            3.9202     5.4160     1.2242 C.ar    
  14 C14            2.6295     4.9116     1.1590 C.ar    
  15 C15            2.8597    -0.6831     1.1793 C.2     
  16 N16            2.6599    -1.9925     1.4283 N.am    
  17 O17            3.9763    -0.2117     1.2660 O.2     
  18 C18            3.7462    -2.8271     1.6818 C.ar    
  19 C19            3.5452    -4.1944     1.8224 C.ar    
  20 C20            4.6356    -5.0133     2.0745 C.ar    
  21 C21            5.8935    -4.4288     2.1771 C.ar    
  22 C22            6.0172    -3.0626     2.0259 C.ar    
  23 N23            4.9614    -2.3100     1.7812 N.ar    
  24 C24           -1.8391    -1.4466    -0.6737 C.3     
  25 F25            4.3185     6.1398     2.2932 F       
  26 F26            4.4796    -6.3476     2.2177 F       
  27 H27           -1.2724     2.3287    -0.1721 H       
  28 H28            2.9224     1.9548     0.6210 H       
  29 H29           -2.2071    -0.5988     1.2722 H       
  30 H30           -2.6251     0.4715    -0.0873 H       
  31 H31            2.9204     3.4075    -1.8481 H       
  32 H32            5.7973     5.5702     0.2171 H       
  33 H33            1.9277     5.0817     1.9621 H       
  34 H34            1.7597    -2.3538     1.4310 H       
  35 H35            2.5536    -4.6137     1.7368 H       
  36 H36            6.7639    -5.0373     2.3732 H       
  37 H37            6.9918    -2.6039     2.1047 H       
  38 H38           -1.1161    -2.1730    -0.3027 H       
  39 H39           -2.8221    -1.9129    -0.7386 H       
  40 H40           -1.5341    -1.1027    -1.6621 H       
@<TRIPOS>BOND
   1    1    2 ar
   2    1    6 ar
   3    1   27 1
   4    2    3 ar
   5    2    7 1
   6    3    4 ar
   7    4    5 ar
   8    4   15 1
   9    5    6 ar
  10    5   28 1
  11    6    8 1
  12    7   24 1
  13    7   29 1
  14    7   30 1
  15    8    9 1
  16    9   10 ar
  17    9   14 ar
  18   10   11 ar
  19   10   31 1
  20   11   12 ar
  21   12   13 ar
  22   12   32 1
  23   13   14 ar
  24   13   25 1
  25   14   33 1
  26   15   16 am
  27   15   17 2
  28   16   18 1
  29   16   34 1
  30   18   19 ar
  31   18   23 ar
  32   19   20 ar
  33   19   35 1
  34   20   21 ar
  35   20   26 1
  36   21   22 ar
  37   21   36 1
  38   22   23 ar
  39   22   37 1
  40   24   38 1
  41   24   39 1
  42   24   40 1

#	End of record

