#	Name: ASD08170262
#	Creating user name:	WinNT
#	Creation time:	15. 06. 2019 21:17

#	Modifying user name:	WinNT
#	Modification time:	15. 06. 2019 21:17

#	Program:	/corina/corina34_cracker 3.40 0067  02.08.2006

@<TRIPOS>MOLECULE
ASD08170262
  25   26    0    0    0
SMALL
NO_CHARGES


@<TRIPOS>ATOM
   1 N1            -0.0167     1.3828     0.0096 N.pl3   
   2 C2             0.0021    -0.0041     0.0020 C.2     
   3 S3             1.4409    -1.0262    -0.0172 S.3     
   4 C4             0.3908    -2.4446    -0.0137 C.2     
   5 C5             0.8419    -3.8825    -0.0244 C.3     
   6 C6             0.9810    -4.3626    -1.4704 C.3     
   7 C7             1.4390    -5.8224    -1.4813 C.3     
   8 C8             1.5760    -6.2953    -2.9056 C.2     
   9 S9             0.3093    -7.0485    -3.8766 S.3     
  10 C10            1.4547    -7.1693    -5.2141 C.2     
  11 N11            1.1962    -7.7042    -6.4674 N.pl3   
  12 N12           -1.0387    -0.7870     0.0135 N.2     
  13 N13           -0.8345    -2.0313     0.0005 N.2     
  14 N14            2.6409    -6.2162    -3.6349 N.2     
  15 N15            2.5862    -6.6650    -4.8121 N.2     
  16 H16            0.8166     1.8792     0.0044 H       
  17 H17           -0.8633     1.8563     0.0162 H       
  18 H18            1.8046    -3.9650     0.4801 H       
  19 H19            0.1064    -4.4979     0.4937 H       
  20 H20            0.0183    -4.2801    -1.9748 H       
  21 H21            1.7165    -3.7472    -1.9884 H       
  22 H22            2.4017    -5.9049    -0.9768 H       
  23 H23            0.7035    -6.4379    -0.9632 H       
  24 H24            0.3160    -8.0568    -6.6721 H       
  25 H25            1.8955    -7.7256    -7.1392 H       
@<TRIPOS>BOND
   1    1    2 1
   2    1   16 1
   3    1   17 1
   4    2    3 1
   5    2   12 2
   6    3    4 1
   7    4    5 1
   8    4   13 2
   9    5    6 1
  10    5   18 1
  11    5   19 1
  12    6    7 1
  13    6   20 1
  14    6   21 1
  15    7    8 1
  16    7   22 1
  17    7   23 1
  18    8    9 1
  19    8   14 2
  20    9   10 1
  21   10   11 1
  22   10   15 2
  23   11   24 1
  24   11   25 1
  25   12   13 1
  26   14   15 1

#	End of record

