#	Name: ASD01915940
#	Creating user name:	WinNT
#	Creation time:	15. 06. 2019 20:06

#	Modifying user name:	WinNT
#	Modification time:	15. 06. 2019 20:06

#	Program:	/corina/corina34_cracker 3.40 0067  02.08.2006

@<TRIPOS>MOLECULE
ASD01915940
  37   40    0    0    0
SMALL
NO_CHARGES


@<TRIPOS>ATOM
   1 C1            -0.0024     1.4553     0.2042 C.2     
   2 C2             0.0605     0.1041    -0.0234 C.2     
   3 C3            -1.2173    -0.6836    -0.2625 C.3     
   4 C4            -2.3612    -0.0091     0.4921 C.3     
   5 N5            -2.4037     1.4320     0.2718 N.am    
   6 C6            -1.2772     2.1815     0.2475 C.2     
   7 O7            -1.3191     3.3975     0.2613 O.2     
   8 S8             1.6254     2.0604     0.4243 S.3     
   9 C9             2.2477     0.4816     0.2058 C.2     
  10 N10            1.2854    -0.3579    -0.0078 N.2     
  11 O11            4.2708     0.2279    -1.0559 O.3     
  12 C12            5.5909    -0.0664    -1.1879 C.ar    
  13 C13            6.2003     0.0180    -2.4313 C.ar    
  14 C14            6.3321    -0.4461    -0.0786 C.ar    
  15 C15            7.6758    -0.7451    -0.2160 C.ar    
  16 C16            8.2797    -0.6648    -1.4600 C.ar    
  17 C17            7.5426    -0.2815    -2.5645 C.ar    
  18 C18            3.7098     0.1194     0.2539 C.3     
  19 C19           -3.6996     2.0851     0.0711 C.3     
  20 F20            8.3992    -1.1151     0.8634 F       
  21 C21           -4.6018     1.5389    -1.0374 C.3     
  22 C22           -4.9555     1.2882     0.4299 C.3     
  23 H23           -1.4425    -0.6994    -1.3289 H       
  24 H24           -1.0912    -1.7034     0.1012 H       
  25 H25           -3.3051    -0.4439     0.1632 H       
  26 H26           -2.2405    -0.1993     1.5586 H       
  27 H27            5.6255     0.3174    -3.2952 H       
  28 H28            5.8609    -0.5078     0.8912 H       
  29 H29            9.3289    -0.8978    -1.5662 H       
  30 H30            8.0154    -0.2199    -3.5335 H       
  31 H31            4.2302     0.7984     0.9295 H       
  32 H32            3.8189    -0.9041     0.6123 H       
  33 H33           -3.7170     3.1601     0.2502 H       
  34 H34           -5.2131     2.2546    -1.5872 H       
  35 H35           -4.2312     0.6937    -1.6173 H       
  36 H36           -4.8175     0.2780     0.8154 H       
  37 H37           -5.7993     1.8389     0.8455 H       
@<TRIPOS>BOND
   1    1    2 2
   2    1    8 1
   3    1    6 1
   4    2    3 1
   5    2   10 1
   6    3    4 1
   7    3   23 1
   8    3   24 1
   9    4    5 1
  10    4   25 1
  11    4   26 1
  12    5    6 am
  13    5   19 1
  14    6    7 2
  15    8    9 1
  16    9   10 2
  17    9   18 1
  18   11   12 1
  19   11   18 1
  20   12   13 ar
  21   12   14 ar
  22   13   17 ar
  23   13   27 1
  24   14   15 ar
  25   14   28 1
  26   15   16 ar
  27   15   20 1
  28   16   17 ar
  29   16   29 1
  30   17   30 1
  31   18   31 1
  32   18   32 1
  33   19   21 1
  34   19   22 1
  35   19   33 1
  36   21   22 1
  37   21   34 1
  38   21   35 1
  39   22   36 1
  40   22   37 1

#	End of record

