#	Name: ASD05490070
#	Creating user name:	WinNT
#	Creation time:	15. 06. 2019 21:01

#	Modifying user name:	WinNT
#	Modification time:	15. 06. 2019 21:01

#	Program:	/corina/corina34_cracker 3.40 0067  02.08.2006

@<TRIPOS>MOLECULE
ASD05490070
  73   77    0    0    0
SMALL
NO_CHARGES


@<TRIPOS>ATOM
   1 N1            -0.0178     1.4608     0.0101 N.pl3   
   2 O2             4.5582     2.8949    -0.0261 O.3     
   3 N3             2.7941     4.3826    -0.0015 N.ar    
   4 C4             1.4952     4.6638     0.0118 C.ar    
   5 C5             3.2233     3.1292    -0.0123 C.ar    
   6 N6             2.3949     2.0994    -0.0093 N.ar    
   7 C7             1.0795     2.2895     0.0040 C.ar    
   8 C8             0.5781     3.6006     0.0150 C.ar    
   9 N9             1.0558     5.9772     0.0226 N.pl3   
  10 C10           -1.1306     2.2546     0.0190 C.2     
  11 N11           -0.7773     3.5129     0.0270 N.2     
  12 C12            5.4173     4.0368    -0.0280 C.3     
  13 C13            6.8766     3.5771    -0.0442 C.3     
  14 O14            7.1483     2.8975    -1.2715 O.3     
  15 C15            8.4917     2.4246    -1.3889 C.3     
  16 C16            0.0021    -0.0041     0.0020 C.3     
  17 C17            0.0225    -0.5140     1.4200 C.ar    
  18 C18           -1.1674    -0.7635     2.0797 C.ar    
  19 C19           -1.1546    -1.2305     3.3784 C.ar    
  20 C20            0.0599    -1.4511     4.0247 C.ar    
  21 C21            1.2555    -1.1986     3.3552 C.ar    
  22 C22            1.2310    -0.7362     2.0550 C.ar    
  23 C23            0.0800    -1.9528     5.4211 C.ar    
  24 C24            1.2946    -2.1734     6.0675 C.ar    
  25 C25           -1.1155    -2.1995     6.0926 C.ar    
  26 C26           -1.0910    -2.6661     7.3915 C.ar    
  27 C27            0.1173    -2.8887     8.0263 C.ar    
  28 C28            1.3074    -2.6400     7.3662 C.ar    
  29 N29            3.0557    -4.2666     7.8168 N.3     
  30 C30            4.4356    -4.4743     8.2776 C.3     
  31 C31            2.9201    -4.6148     6.3955 C.3     
  32 C32            3.3073    -6.0817     6.1933 C.3     
  33 N33            4.6872    -6.2894     6.6541 N.3     
  34 C34            4.8228    -5.9411     8.0754 C.3     
  35 C35            2.6203    -2.8856     8.0642 C.3     
  36 C36            5.1226    -7.6704     6.4067 C.3     
  37 O37           -2.4073     1.8048     0.0270 O.3     
  38 C38           -3.4422     2.7900     0.0462 C.3     
  39 H39            1.6985     6.7037     0.0206 H       
  40 H40            0.1053     6.1706     0.0323 H       
  41 H41            5.2168     4.6408    -0.9129 H       
  42 H42            5.2335     4.6312     0.8670 H       
  43 H43            7.5315     4.4439     0.0439 H       
  44 H44            7.0539     2.9012     0.7924 H       
  45 H45            8.7025     1.7248    -0.5803 H       
  46 H46            8.6170     1.9208    -2.3473 H       
  47 H47            9.1802     3.2675    -1.3287 H       
  48 H48           -0.8878    -0.3767    -0.5053 H       
  49 H49            0.8920    -0.3525    -0.5222 H       
  50 H50           -2.1082    -0.5921     1.5778 H       
  51 H51           -2.0843    -1.4243     3.8928 H       
  52 H52            2.1997    -1.3679     3.8515 H       
  53 H53            2.1571    -0.5405     1.5350 H       
  54 H54            2.2243    -1.9799     5.5530 H       
  55 H55           -2.0597    -2.0256     5.5980 H       
  56 H56           -2.0172    -2.8573     7.9131 H       
  57 H57            0.1319    -3.2535     9.0427 H       
  58 H58            5.1100    -3.8378     7.7047 H       
  59 H59            4.5076    -4.2217     9.3355 H       
  60 H60            1.8872    -4.4647     6.0813 H       
  61 H61            3.5773    -3.9800     5.8012 H       
  62 H62            2.6329    -6.7181     6.7662 H       
  63 H63            3.2352    -6.3343     5.1354 H       
  64 H64            5.8556    -6.0912     8.3897 H       
  65 H65            4.1656    -6.5759     8.6697 H       
  66 H66            3.3705    -2.1939     7.6810 H       
  67 H67            2.4965    -2.7301     9.1360 H       
  68 H68            5.0757    -7.8802     5.3381 H       
  69 H69            6.1470    -7.7967     6.7571 H       
  70 H70            4.4682    -8.3590     6.9412 H       
  71 H71           -3.3425     3.4042     0.9411 H       
  72 H72           -3.3595     3.4211    -0.8387 H       
  73 H73           -4.4139     2.2962     0.0508 H       
@<TRIPOS>BOND
   1    1   16 1
   2    1    7 1
   3    1   10 1
   4    2   12 1
   5    2    5 1
   6    3    4 ar
   7    3    5 ar
   8    4    9 1
   9    4    8 ar
  10    5    6 ar
  11    6    7 ar
  12    7    8 ar
  13    8   11 1
  14    9   39 1
  15    9   40 1
  16   10   11 2
  17   10   37 1
  18   12   13 1
  19   12   41 1
  20   12   42 1
  21   13   14 1
  22   13   43 1
  23   13   44 1
  24   14   15 1
  25   15   45 1
  26   15   46 1
  27   15   47 1
  28   16   17 1
  29   16   48 1
  30   16   49 1
  31   17   18 ar
  32   17   22 ar
  33   18   19 ar
  34   18   50 1
  35   19   20 ar
  36   19   51 1
  37   20   21 ar
  38   20   23 1
  39   21   22 ar
  40   21   52 1
  41   22   53 1
  42   23   24 ar
  43   23   25 ar
  44   24   28 ar
  45   24   54 1
  46   25   26 ar
  47   25   55 1
  48   26   27 ar
  49   26   56 1
  50   27   28 ar
  51   27   57 1
  52   28   35 1
  53   29   30 1
  54   29   31 1
  55   29   35 1
  56   30   34 1
  57   30   58 1
  58   30   59 1
  59   31   32 1
  60   31   60 1
  61   31   61 1
  62   32   33 1
  63   32   62 1
  64   32   63 1
  65   33   34 1
  66   33   36 1
  67   34   64 1
  68   34   65 1
  69   35   66 1
  70   35   67 1
  71   36   68 1
  72   36   69 1
  73   36   70 1
  74   37   38 1
  75   38   71 1
  76   38   72 1
  77   38   73 1

#	End of record

