#	Name: ASD04881035
#	Creating user name:	WinNT
#	Creation time:	15. 06. 2019 20:53

#	Modifying user name:	WinNT
#	Modification time:	15. 06. 2019 20:53

#	Program:	/corina/corina34_cracker 3.40 0067  02.08.2006

@<TRIPOS>MOLECULE
ASD04881035
  73   78    0    0    0
SMALL
NO_CHARGES


@<TRIPOS>ATOM
   1 C1            -0.4545     2.3445     3.1221 C.ar    
   2 C2            -0.7165     1.3660     2.1804 C.ar    
   3 C3             0.2303     1.0526     1.2228 C.ar    
   4 C4             1.4415     1.7163     1.2037 C.ar    
   5 C5             1.7078     2.6995     2.1479 C.ar    
   6 C6             0.7542     3.0119     3.1088 C.ar    
   7 N7             2.9318     3.3723     2.1318 N.3     
   8 C8             3.0841     4.1591     0.9000 C.3     
   9 C9             4.3983     4.9414     0.9567 C.3     
  10 N10            5.5173     4.0030     1.1206 N.3     
  11 C11            5.3650     3.2162     2.3524 C.3     
  12 C12            4.0508     2.4339     2.2956 C.3     
  13 C13            6.7375     4.6737     1.1045 C.ar    
  14 C14            7.1748     5.2992    -0.0667 C.ar    
  15 C15            8.3856     5.9647    -0.0824 C.ar    
  16 C16            9.1698     6.0102     1.0742 C.ar    
  17 C17            8.7267     5.3828     2.2415 C.ar    
  18 C18            7.5162     4.7252     2.2545 C.ar    
  19 C19            1.0385     4.0783     4.1349 C.3     
  20 N20            6.3862     5.2510    -1.2239 N.am    
  21 C21            6.4796     6.2310    -2.1444 C.2     
  22 C22            5.5844     6.2299    -3.3154 C.2     
  23 O23            7.3027     7.1162    -2.0089 O.2     
  24 N24            4.6221     5.3100    -3.5965 N.2     
  25 C25            4.0441     5.6459    -4.7107 C.2     
  26 O26            4.6032     6.7716    -5.1767 O.3     
  27 C27            5.5609     7.1522    -4.3161 C.2     
  28 C28           10.4635     6.7191     1.0620 C.2     
  29 O29           10.8485     7.2644     0.0456 O.2     
  30 N30           11.2187     6.7624     2.1775 N.am    
  31 C31           12.5034     7.4664     2.1654 C.3     
  32 C32            2.9228     4.8889    -5.3747 C.3     
  33 C33            1.6005     5.6284    -5.5881 C.3     
  34 C34            2.5100     5.3278    -6.7811 C.3     
  35 C35           13.1536     7.3647     3.5467 C.3     
  36 C36           14.4752     8.0889     3.5343 C.2     
  37 C37           14.8469     9.0717     4.3765 C.2     
  38 N38           16.1139     9.4439     4.0163 N.pl3   
  39 C39           16.4726     8.6750     2.9656 C.2     
  40 N40           15.4895     7.8636     2.6861 N.2     
  41 H41           -1.1980     2.5900     3.8660 H       
  42 H42           -1.6626     0.8453     2.1933 H       
  43 H43            0.0228     0.2878     0.4891 H       
  44 H44            2.1808     1.4708     0.4556 H       
  45 H45            3.0963     3.4895     0.0400 H       
  46 H46            2.2503     4.8550     0.8076 H       
  47 H47            4.5273     5.5032     0.0316 H       
  48 H48            4.3751     5.6306     1.8009 H       
  49 H49            6.1988     2.5202     2.4448 H       
  50 H50            5.3528     3.8858     3.2124 H       
  51 H51            3.9218     1.8720     3.2207 H       
  52 H52            4.0740     1.7447     1.4515 H       
  53 H53            8.7257     6.4484    -0.9862 H       
  54 H54            9.3316     5.4173     3.1355 H       
  55 H55            7.1738     4.2448     3.1591 H       
  56 H56            1.4252     3.6151     5.0427 H       
  57 H57            1.7775     4.7752     3.7395 H       
  58 H58            0.1186     4.6158     4.3648 H       
  59 H59            5.7730     4.5123    -1.3625 H       
  60 H60            6.1940     8.0229    -4.4028 H       
  61 H61           10.9116     6.3274     2.9883 H       
  62 H62           13.1587     7.0139     1.4212 H       
  63 H63           12.3407     8.5151     1.9167 H       
  64 H64            2.8729     3.8248    -5.1442 H       
  65 H65            0.6806     5.0506    -5.4983 H       
  66 H66            1.5415     6.6623    -5.2481 H       
  67 H67            3.0493     6.1639    -7.2261 H       
  68 H68            2.1884     4.5522    -7.4762 H       
  69 H69           12.4983     7.8172     4.2909 H       
  70 H70           13.3163     6.3160     3.7953 H       
  71 H71           14.2583     9.4868     5.1813 H       
  72 H72           16.6534    10.1315     4.4370 H       
  73 H73           17.4180     8.7211     2.4455 H       
@<TRIPOS>BOND
   1    1    2 ar
   2    1    6 ar
   3    1   41 1
   4    2    3 ar
   5    2   42 1
   6    3    4 ar
   7    3   43 1
   8    4    5 ar
   9    4   44 1
  10    5    6 ar
  11    5    7 1
  12    6   19 1
  13    7    8 1
  14    7   12 1
  15    8    9 1
  16    8   45 1
  17    8   46 1
  18    9   10 1
  19    9   47 1
  20    9   48 1
  21   10   11 1
  22   10   13 1
  23   11   12 1
  24   11   49 1
  25   11   50 1
  26   12   51 1
  27   12   52 1
  28   13   14 ar
  29   13   18 ar
  30   14   15 ar
  31   14   20 1
  32   15   16 ar
  33   15   53 1
  34   16   17 ar
  35   16   28 1
  36   17   18 ar
  37   17   54 1
  38   18   55 1
  39   19   56 1
  40   19   57 1
  41   19   58 1
  42   20   21 am
  43   20   59 1
  44   21   22 1
  45   21   23 2
  46   22   24 1
  47   22   27 2
  48   24   25 2
  49   25   26 1
  50   25   32 1
  51   26   27 1
  52   27   60 1
  53   28   29 2
  54   28   30 am
  55   30   31 1
  56   30   61 1
  57   31   35 1
  58   31   62 1
  59   31   63 1
  60   32   33 1
  61   32   34 1
  62   32   64 1
  63   33   34 1
  64   33   65 1
  65   33   66 1
  66   34   67 1
  67   34   68 1
  68   35   36 1
  69   35   69 1
  70   35   70 1
  71   36   37 2
  72   36   40 1
  73   37   38 1
  74   37   71 1
  75   38   39 1
  76   38   72 1
  77   39   40 2
  78   39   73 1

#	End of record

