#	Name: ASD02500855
#	Creating user name:	WinNT
#	Creation time:	15. 06. 2019 20:23

#	Modifying user name:	WinNT
#	Modification time:	15. 06. 2019 20:23

#	Program:	/corina/corina34_cracker 3.40 0067  02.08.2006

@<TRIPOS>MOLECULE
ASD02500855
  40   42    0    0    0
SMALL
NO_CHARGES


@<TRIPOS>ATOM
   1 C1            -1.0401     3.2946    -0.0557 C.ar    
   2 C2            -1.8153     2.9351    -1.1607 C.ar    
   3 C3            -3.0963     2.4554    -0.9740 C.ar    
   4 C4            -3.6119     2.3306     0.3033 C.ar    
   5 C5            -2.8492     2.6855     1.4025 C.ar    
   6 C6            -1.5660     3.1607     1.2313 C.ar    
   7 C7             0.3312     3.8081    -0.2470 C.2     
   8 I8            -1.0363     3.1241    -3.0963 I       
   9 O9             1.0762     4.1539     0.8211 O.3     
  10 O10            0.7876     3.9187    -1.3674 O.2     
  11 C11            2.3554     4.5413     0.5812 C.ar    
  12 C12            2.6133     5.8205     0.1023 C.ar    
  13 C13            3.4026     3.6590     0.8207 C.ar    
  14 C14            4.7015     4.0465     0.5796 C.ar    
  15 C15            4.9667     5.3320     0.0917 C.ar    
  16 C16            3.9083     6.2183    -0.1432 C.ar    
  17 C17            6.3502     5.7512    -0.1669 C.2     
  18 C18            6.5978     6.8126    -0.9759 C.2     
  19 C19            7.8841     7.4710    -1.2335 C.2     
  20 N20            7.8302     8.4910    -2.0738 N.am    
  21 C21            6.6561     8.8410    -2.6113 C.2     
  22 S22            5.4420     7.7193    -1.9719 S.3     
  23 O23            8.9219     7.1062    -0.7129 O.2     
  24 C24            9.0473     9.2324    -2.4132 C.3     
  25 C25            9.6996     8.6030    -3.6171 C.2     
  26 O26           10.8365     9.1184    -4.1106 O.3     
  27 O27            9.1992     7.6346    -4.1382 O.2     
  28 S28            6.3804    10.1228    -3.7122 S.2     
  29 H29           -3.6972     2.1773    -1.8272 H       
  30 H30           -4.6146     1.9548     0.4437 H       
  31 H31           -3.2584     2.5858     2.3969 H       
  32 H32           -0.9722     3.4371     2.0900 H       
  33 H33            1.7963     6.5035    -0.0779 H       
  34 H34            3.1968     2.6678     1.1969 H       
  35 H35            5.5143     3.3605     0.7667 H       
  36 H36            4.1072     7.2108    -0.5197 H       
  37 H37            7.1707     5.2150     0.2866 H       
  38 H38            8.7912    10.2677    -2.6384 H       
  39 H39            9.7371     9.2040    -1.5698 H       
  40 H40           11.2177     8.6805    -4.8839 H       
@<TRIPOS>BOND
   1    1    2 ar
   2    1    7 1
   3    1    6 ar
   4    2    3 ar
   5    2    8 1
   6    3    4 ar
   7    3   29 1
   8    4    5 ar
   9    4   30 1
  10    5    6 ar
  11    5   31 1
  12    6   32 1
  13    7    9 1
  14    7   10 2
  15    9   11 1
  16   11   12 ar
  17   11   13 ar
  18   12   16 ar
  19   12   33 1
  20   13   14 ar
  21   13   34 1
  22   14   15 ar
  23   14   35 1
  24   15   16 ar
  25   15   17 1
  26   16   36 1
  27   17   18 2
  28   17   37 1
  29   18   19 1
  30   18   22 1
  31   19   20 am
  32   19   23 2
  33   20   21 am
  34   20   24 1
  35   21   22 1
  36   21   28 2
  37   24   25 1
  38   24   38 1
  39   24   39 1
  40   25   26 1
  41   25   27 2
  42   26   40 1

#	End of record

