#	Name: ASD05430446
#	Creating user name:	WinNT
#	Creation time:	15. 06. 2019 21:00

#	Modifying user name:	WinNT
#	Modification time:	15. 06. 2019 21:00

#	Program:	/corina/corina34_cracker 3.40 0067  02.08.2006

@<TRIPOS>MOLECULE
ASD05430446
  53   57    0    0    0
SMALL
NO_CHARGES


@<TRIPOS>ATOM
   1 C1            -0.0228     1.3681     0.1728 C.ar    
   2 C2            -0.0158    -0.0182     0.3226 C.ar    
   3 C3            -1.2130    -0.7199     0.3822 C.ar    
   4 C4            -2.4135    -0.0495     0.2932 C.ar    
   5 C5            -2.4285     1.3412     0.1428 C.ar    
   6 C6            -1.2231     2.0481     0.0890 C.ar    
   7 C7            -4.8651     1.3677    -0.0474 C.2     
   8 C8            -3.7094     2.0590     0.0476 C.2     
   9 O9             1.1510     2.0515     0.1148 O.3     
  10 C10            1.5497    -1.6273     1.3663 C.2     
  11 N11            1.2027    -0.7055     0.4128 N.pl3   
  12 C12            2.8002    -2.0354     1.0775 C.2     
  13 N13            3.2100    -1.3840    -0.0209 N.2     
  14 C14            2.2620    -0.5846    -0.4286 C.2     
  15 C15            3.6008    -3.0484     1.8545 C.3     
  16 C16           -7.1939     0.0887    -1.0109 C.2     
  17 N17           -7.3109     1.3204    -0.4742 N.am    
  18 C18           -5.8129    -0.4829    -1.2118 C.3     
  19 C19           -6.2038     2.0167     0.0166 C.2     
  20 O20           -4.9082     0.0044    -0.2174 O.3     
  21 C21           -8.5009     2.1425    -0.2762 C.3     
  22 C22           -7.9421     3.4287     0.3687 C.3     
  23 N23           -6.4970     3.1803     0.4819 N.2     
  24 C24           -9.1572     2.4539    -1.5966 C.ar    
  25 C25          -10.5355     2.4412    -1.7028 C.ar    
  26 C26          -11.1384     2.7272    -2.9130 C.ar    
  27 C27          -10.3615     3.0264    -4.0193 C.ar    
  28 C28           -8.9812     3.0388    -3.9117 C.ar    
  29 C29           -8.3806     2.7577    -2.6992 C.ar    
  30 F30          -10.9498     3.3056    -5.2030 F       
  31 C31            1.0690     3.4698    -0.0394 C.3     
  32 O32           -8.1784    -0.5456    -1.3250 O.2     
  33 H33           -1.2029    -1.7936     0.4983 H       
  34 H34           -3.3429    -0.5978     0.3392 H       
  35 H35           -1.2301     3.1218    -0.0270 H       
  36 H36           -3.7250     3.1389     0.0537 H       
  37 H37            0.9391    -1.9591     2.1931 H       
  38 H38            2.3119     0.0646    -1.2903 H       
  39 H39            3.4126    -4.0447     1.4542 H       
  40 H40            4.6623    -2.8165     1.7679 H       
  41 H41            3.3064    -3.0169     2.9036 H       
  42 H42           -5.8614    -1.5697    -1.1432 H       
  43 H43           -5.4495    -0.2030    -2.2006 H       
  44 H44           -9.2024     1.6477     0.3956 H       
  45 H45           -8.1366     4.2906    -0.2696 H       
  46 H46           -8.3767     3.5793     1.3569 H       
  47 H47          -11.1412     2.2074    -0.8398 H       
  48 H48          -12.2152     2.7168    -2.9958 H       
  49 H49           -8.3742     3.2721    -4.7740 H       
  50 H50           -7.3039     2.7673    -2.6150 H       
  51 H51            0.5472     3.7048    -0.9671 H       
  52 H52            0.5233     3.8959     0.8024 H       
  53 H53            2.0741     3.8905    -0.0713 H       
@<TRIPOS>BOND
   1    1    2 ar
   2    1    9 1
   3    1    6 ar
   4    2    3 ar
   5    2   11 1
   6    3    4 ar
   7    3   33 1
   8    4    5 ar
   9    4   34 1
  10    5    6 ar
  11    5    8 1
  12    6   35 1
  13    7    8 2
  14    7   19 1
  15    7   20 1
  16    8   36 1
  17    9   31 1
  18   10   11 1
  19   10   12 2
  20   10   37 1
  21   11   14 1
  22   12   13 1
  23   12   15 1
  24   13   14 2
  25   14   38 1
  26   15   39 1
  27   15   40 1
  28   15   41 1
  29   16   17 am
  30   16   18 1
  31   16   32 2
  32   17   21 1
  33   17   19 1
  34   18   20 1
  35   18   42 1
  36   18   43 1
  37   19   23 2
  38   21   22 1
  39   21   24 1
  40   21   44 1
  41   22   23 1
  42   22   45 1
  43   22   46 1
  44   24   25 ar
  45   24   29 ar
  46   25   26 ar
  47   25   47 1
  48   26   27 ar
  49   26   48 1
  50   27   28 ar
  51   27   30 1
  52   28   29 ar
  53   28   49 1
  54   29   50 1
  55   31   51 1
  56   31   52 1
  57   31   53 1

#	End of record

