#	Name: ASD01912459
#	Creating user name:	WinNT
#	Creation time:	15. 06. 2019 19:59

#	Modifying user name:	WinNT
#	Modification time:	15. 06. 2019 19:59

#	Program:	/corina/corina34_cracker 3.40 0067  02.08.2006

@<TRIPOS>MOLECULE
ASD01912459
  39   40    0    0    0
SMALL
NO_CHARGES


@<TRIPOS>ATOM
   1 C1            -0.0169     1.3928     0.0241 C.ar    
   2 C2             0.0017    -0.0033     0.0130 C.ar    
   3 C3             1.2379    -0.6670    -0.0098 C.ar    
   4 C4             2.3897     0.0931    -0.0204 C.ar    
   5 C5             2.2891     1.4815    -0.0083 C.ar    
   6 N6             1.1074     2.0787     0.0133 N.ar    
   7 C7            -1.2222    -0.7467     0.0253 C.1     
   8 C8            -2.2256    -1.3561     0.0353 C.1     
   9 C9            -3.4495    -2.0994     0.0476 C.ar    
  10 C10           -3.4223    -3.4960     0.0364 C.ar    
  11 C11           -4.6074    -4.2062     0.0489 C.ar    
  12 C12           -5.8197    -3.5353     0.0719 C.ar    
  13 C13           -5.8521    -2.1520     0.0830 C.ar    
  14 C14           -4.6766    -1.4308     0.0767 C.ar    
  15 N15            3.4482     2.2537    -0.0189 N.am    
  16 C16            3.3632     3.5955    -0.1126 C.2     
  17 C17            4.6078     4.4386    -0.0069 C.3     
  18 O18            2.2851     4.1244    -0.2820 O.2     
  19 C19            4.2362     5.9163    -0.1454 C.3     
  20 F20           -4.5843    -5.5570     0.0381 F       
  21 C21            5.2687     4.2041     1.3530 C.3     
  22 C22            5.5823     4.0512    -1.1210 C.3     
  23 H23           -0.9621     1.9151     0.0371 H       
  24 H24            1.2868    -1.7458    -0.0185 H       
  25 H25            3.3585    -0.3839    -0.0376 H       
  26 H26           -2.4776    -4.0191     0.0178 H       
  27 H27           -6.7436    -4.0946     0.0808 H       
  28 H28           -6.8005    -1.6357     0.1010 H       
  29 H29           -4.7043    -0.3512     0.0854 H       
  30 H30            4.3167     1.8257     0.0411 H       
  31 H31            3.5419     6.1922     0.6483 H       
  32 H32            5.1364     6.5260    -0.0689 H       
  33 H33            3.7654     6.0833    -1.1142 H       
  34 H34            5.5335     3.1514     1.4516 H       
  35 H35            6.1689     4.8139     1.4294 H       
  36 H36            4.5744     4.4801     2.1467 H       
  37 H37            5.1116     4.2182    -2.0898 H       
  38 H38            6.4826     4.6610    -1.0446 H       
  39 H39            5.8471     2.9985    -1.0224 H       
@<TRIPOS>BOND
   1    1    2 ar
   2    1    6 ar
   3    1   23 1
   4    2    3 ar
   5    2    7 1
   6    3    4 ar
   7    3   24 1
   8    4    5 ar
   9    4   25 1
  10    5    6 ar
  11    5   15 1
  12    7    8 3
  13    8    9 1
  14    9   10 ar
  15    9   14 ar
  16   10   11 ar
  17   10   26 1
  18   11   12 ar
  19   11   20 1
  20   12   13 ar
  21   12   27 1
  22   13   14 ar
  23   13   28 1
  24   14   29 1
  25   15   16 am
  26   15   30 1
  27   16   17 1
  28   16   18 2
  29   17   19 1
  30   17   21 1
  31   17   22 1
  32   19   31 1
  33   19   32 1
  34   19   33 1
  35   21   34 1
  36   21   35 1
  37   21   36 1
  38   22   37 1
  39   22   38 1
  40   22   39 1

#	End of record

