#	Name: ASD00310090
#	Creating user name:	WinNT
#	Creation time:	15. 06. 2019 18:33

#	Modifying user name:	WinNT
#	Modification time:	15. 06. 2019 18:33

#	Program:	/corina/corina34_cracker 3.40 0067  02.08.2006

@<TRIPOS>MOLECULE
ASD00310090
  52   55    0    0    0
SMALL
NO_CHARGES


@<TRIPOS>ATOM
   1 N1            -0.0163     1.3499     0.0095 N.pl3   
   2 C2             0.0021    -0.0041     0.0020 C.2     
   3 C3             1.2922    -0.4483    -0.0127 C.2     
   4 C4             2.1476     0.7538    -0.0144 C.ar    
   5 C5             3.5232     0.9581    -0.0264 C.ar    
   6 C6             4.0242     2.2536    -0.0243 C.ar    
   7 C7             3.1469     3.3435    -0.0100 C.ar    
   8 C8             1.7853     3.1435     0.0019 C.ar    
   9 C9             1.2697     1.8501    -0.0001 C.ar    
  10 C10            1.7402    -1.8454    -0.0245 C.2     
  11 O11            2.9286    -2.1027    -0.0367 O.2     
  12 O12            0.8342    -2.8441    -0.0217 O.3     
  13 C13            5.4901     2.4818    -0.0365 C.ar    
  14 C14            6.0523     3.3602    -0.9612 C.ar    
  15 C15            7.4154     3.5702    -0.9702 C.ar    
  16 C16            8.2273     2.9075    -0.0598 C.ar    
  17 C17            7.6703     2.0317     0.8620 C.ar    
  18 C18            6.3071     1.8226     0.8803 C.ar    
  19 O19            9.5700     3.1161    -0.0714 O.3     
  20 C20           10.3459     2.4018     0.8928 C.3     
  21 C21           11.8234     2.7628     0.7272 C.3     
  22 C22           12.6541     1.9980     1.7596 C.3     
  23 N23           14.0727     2.3446     1.6006 N.3     
  24 C24           14.8719     1.8191     2.7171 C.3     
  25 C25           16.3478     2.1505     2.4816 C.3     
  26 O26           16.4952     3.5649     2.3290 O.3     
  27 C27           15.7310     4.1102     1.2501 C.3     
  28 C28           14.2487     3.7986     1.4732 C.3     
  29 Cl29           3.7804     4.9597    -0.0068 Cl      
  30 H30           -0.8206     1.8921     0.0164 H       
  31 H31           -0.8729    -0.6372     0.0073 H       
  32 H32            4.1977     0.1147    -0.0370 H       
  33 H33            1.1158     3.9909     0.0132 H       
  34 H34            1.1772    -3.7482    -0.0298 H       
  35 H35            5.4213     3.8755    -1.6702 H       
  36 H36            7.8516     4.2507    -1.6865 H       
  37 H37            8.3045     1.5170     1.5686 H       
  38 H38            5.8738     1.1448     1.6008 H       
  39 H39           10.0162     2.6713     1.8962 H       
  40 H40           10.2147     1.3301     0.7429 H       
  41 H41           12.1530     2.4933    -0.2762 H       
  42 H42           11.9546     3.8345     0.8772 H       
  43 H43           12.3245     2.2675     2.7630 H       
  44 H44           12.5229     0.9263     1.6097 H       
  45 H45           14.5403     2.2767     3.6491 H       
  46 H46           14.7467     0.7379     2.7770 H       
  47 H47           16.9372     1.8131     3.3342 H       
  48 H48           16.6938     1.6489     1.5778 H       
  49 H49           15.8742     5.1901     1.2121 H       
  50 H50           16.0590     3.6656     0.3105 H       
  51 H51           13.6687     4.1625     0.6251 H       
  52 H52           13.9072     4.2879     2.3853 H       
@<TRIPOS>BOND
   1    1    2 1
   2    1    9 1
   3    1   30 1
   4    2    3 2
   5    2   31 1
   6    3    4 1
   7    3   10 1
   8    4    5 ar
   9    4    9 ar
  10    5    6 ar
  11    5   32 1
  12    6    7 ar
  13    6   13 1
  14    7    8 ar
  15    7   29 1
  16    8    9 ar
  17    8   33 1
  18   10   11 2
  19   10   12 1
  20   12   34 1
  21   13   14 ar
  22   13   18 ar
  23   14   15 ar
  24   14   35 1
  25   15   16 ar
  26   15   36 1
  27   16   17 ar
  28   16   19 1
  29   17   18 ar
  30   17   37 1
  31   18   38 1
  32   19   20 1
  33   20   21 1
  34   20   39 1
  35   20   40 1
  36   21   22 1
  37   21   41 1
  38   21   42 1
  39   22   23 1
  40   22   43 1
  41   22   44 1
  42   23   24 1
  43   23   28 1
  44   24   25 1
  45   24   45 1
  46   24   46 1
  47   25   26 1
  48   25   47 1
  49   25   48 1
  50   26   27 1
  51   27   28 1
  52   27   49 1
  53   27   50 1
  54   28   51 1
  55   28   52 1

#	End of record

