#	Name: ASD06340068
#	Creating user name:	WinNT
#	Creation time:	15. 06. 2019 21:06

#	Modifying user name:	WinNT
#	Modification time:	15. 06. 2019 21:06

#	Program:	/corina/corina34_cracker 3.40 0067  02.08.2006

@<TRIPOS>MOLECULE
ASD06340068
  47   49    0    0    0
SMALL
NO_CHARGES


@<TRIPOS>ATOM
   1 S1            -0.0210     1.6939     0.0114 S.3     
   2 N2             0.0021    -0.0041     0.0020 N.am    
   3 C3             1.2962    -0.3594    -0.0122 C.2     
   4 N4             2.1856     0.6226    -0.0155 N.am    
   5 C5             1.6912     1.8721    -0.0040 C.2     
   6 O6             1.6365    -1.5276    -0.0214 O.2     
   7 O7             2.3224     2.9128    -0.0052 O.2     
   8 C8             3.6269     0.3610    -0.0302 C.3     
   9 C9             4.1080     0.2785    -1.4559 C.ar    
  10 C10            4.5426     1.4188    -2.1059 C.ar    
  11 C11            4.9837     1.3432    -3.4136 C.ar    
  12 C12            4.9909     0.1272    -4.0715 C.ar    
  13 C13            4.5573    -1.0129    -3.4214 C.ar    
  14 C14            4.1201    -0.9380    -2.1120 C.ar    
  15 C15            5.4565     2.5862    -4.1224 C.3     
  16 C16           -1.1035    -0.8590     0.0084 C.ar    
  17 C17           -2.3257    -0.4204    -0.4857 C.ar    
  18 C18           -3.4161    -1.2678    -0.4779 C.ar    
  19 C19           -3.2926    -2.5515     0.0215 C.ar    
  20 C20           -2.0775    -2.9914     0.5141 C.ar    
  21 C21           -0.9815    -2.1513     0.5036 C.ar    
  22 C22           -4.4850    -3.4730     0.0293 C.3     
  23 C23           -4.9800    -3.6788    -1.4037 C.3     
  24 C24           -4.0830    -4.8221     0.6287 C.3     
  25 C25           -5.6026    -2.8538     0.8710 C.3     
  26 H26            4.1482     1.1691     0.4830 H       
  27 H27            3.8302    -0.5822     0.4770 H       
  28 H28            4.5370     2.3686    -1.5920 H       
  29 H29            5.3349     0.0682    -5.0935 H       
  30 H30            4.5626    -1.9626    -3.9355 H       
  31 H31            3.7848    -1.8294    -1.6028 H       
  32 H32            6.5270     2.7119    -3.9605 H       
  33 H33            5.2590     2.4929    -5.1902 H       
  34 H34            4.9253     3.4530    -3.7290 H       
  35 H35           -2.4230     0.5822    -0.8752 H       
  36 H36           -4.3664    -0.9275    -0.8618 H       
  37 H37           -1.9847    -3.9944     0.9037 H       
  38 H38           -0.0317    -2.4971     0.8840 H       
  39 H39           -4.1837    -4.1200    -2.0033 H       
  40 H40           -5.8424    -4.3453    -1.3980 H       
  41 H41           -5.2663    -2.7177    -1.8307 H       
  42 H42           -3.7304    -4.6756     1.6496 H       
  43 H43           -4.9454    -5.4887     0.6343 H       
  44 H44           -3.2868    -5.2633     0.0291 H       
  45 H45           -5.8890    -1.8927     0.4440 H       
  46 H46           -6.4651    -3.5203     0.8766 H       
  47 H47           -5.2500    -2.7072     1.8919 H       
@<TRIPOS>BOND
   1    1    2 1
   2    1    5 1
   3    2    3 am
   4    2   16 1
   5    3    4 am
   6    3    6 2
   7    4    5 am
   8    4    8 1
   9    5    7 2
  10    8    9 1
  11    8   26 1
  12    8   27 1
  13    9   10 ar
  14    9   14 ar
  15   10   11 ar
  16   10   28 1
  17   11   12 ar
  18   11   15 1
  19   12   13 ar
  20   12   29 1
  21   13   14 ar
  22   13   30 1
  23   14   31 1
  24   15   32 1
  25   15   33 1
  26   15   34 1
  27   16   17 ar
  28   16   21 ar
  29   17   18 ar
  30   17   35 1
  31   18   19 ar
  32   18   36 1
  33   19   20 ar
  34   19   22 1
  35   20   21 ar
  36   20   37 1
  37   21   38 1
  38   22   23 1
  39   22   25 1
  40   22   24 1
  41   23   39 1
  42   23   40 1
  43   23   41 1
  44   24   42 1
  45   24   43 1
  46   24   44 1
  47   25   45 1
  48   25   46 1
  49   25   47 1

#	End of record

