#	Name: ASD01813478
#	Creating user name:	WinNT
#	Creation time:	15. 06. 2019 19:30

#	Modifying user name:	WinNT
#	Modification time:	15. 06. 2019 19:30

#	Program:	/corina/corina34_cracker 3.40 0067  02.08.2006

@<TRIPOS>MOLECULE
ASD01813478
  48   51    0    0    0
SMALL
NO_CHARGES


@<TRIPOS>ATOM
   1 C1            -1.2856     0.5037     0.0569 C.ar    
   2 C2            -1.1676    -0.8722    -0.0762 C.ar    
   3 C3             0.0647    -1.4856     0.0150 C.ar    
   4 C4             1.2077    -0.7200     0.2434 C.ar    
   5 C5             1.0836     0.6729     0.3774 C.ar    
   6 C6            -0.1694     1.2785     0.2828 C.ar    
   7 N7             2.4454    -1.3202     0.3378 N.pl3   
   8 C8             3.5714    -0.6301     0.5572 C.2     
   9 C9             3.5759     0.7424     0.7061 C.2     
  10 C10            2.3001     1.4711     0.6187 C.2     
  11 O11            2.2508     2.6822     0.7428 O.2     
  12 C12            4.8335     1.4638     0.9469 C.2     
  13 O13            4.8248     2.8042     1.0906 O.3     
  14 O14            5.8815     0.8519     1.0165 O.2     
  15 C15            2.5319    -2.7753     0.1922 C.3     
  16 C16            2.6132    -3.1299    -1.2703 C.ar    
  17 N17            1.5026    -3.2485    -1.9720 N.ar    
  18 C18            1.5187    -3.5561    -3.2527 C.ar    
  19 C19            2.7266    -3.7689    -3.9159 C.ar    
  20 C20            3.9218    -3.6503    -3.1987 C.ar    
  21 C21            3.8516    -3.3202    -1.8566 C.ar    
  22 C22            2.7439    -4.1152    -5.3561 C.ar    
  23 F23            0.1640    -2.8265    -0.1162 F       
  24 C24            2.1476    -3.2552    -6.2995 C.ar    
  25 C25            2.1729    -3.5963    -7.6553 C.ar    
  26 C26            2.7784    -4.7668    -8.0590 C.ar    
  27 C27            3.3642    -5.6111    -7.1292 C.ar    
  28 C28            3.3543    -5.2895    -5.7868 C.ar    
  29 C29            1.5038    -2.0096    -5.8619 C.2     
  30 C30            0.7386    -1.1690    -6.8513 C.3     
  31 O31            1.5879    -1.6577    -4.7043 O.2     
  32 H32           -2.2566     0.9699    -0.0215 H       
  33 H33           -2.0499    -1.4695    -0.2528 H       
  34 H34           -0.2638     2.3495     0.3857 H       
  35 H35            4.5076    -1.1650     0.6203 H       
  36 H36            5.6765     3.2344     1.2474 H       
  37 H37            3.4226    -3.1394     0.7043 H       
  38 H38            1.6469    -3.2375     0.6294 H       
  39 H39            0.5882    -3.6446    -3.7936 H       
  40 H40            4.8751    -3.8088    -3.6809 H       
  41 H41            4.7538    -3.2196    -1.2715 H       
  42 H42            1.7181    -2.9433    -8.3855 H       
  43 H43            2.7961    -5.0279    -9.1068 H       
  44 H44            3.8353    -6.5258    -7.4578 H       
  45 H45            3.8136    -5.9534    -5.0694 H       
  46 H46            0.7730    -1.6416    -7.8329 H       
  47 H47           -0.2983    -1.0799    -6.5271 H       
  48 H48            1.1876    -0.1775    -6.9095 H       
@<TRIPOS>BOND
   1    1    2 ar
   2    1    6 ar
   3    1   32 1
   4    2    3 ar
   5    2   33 1
   6    3    4 ar
   7    3   23 1
   8    4    5 ar
   9    4    7 1
  10    5    6 ar
  11    5   10 1
  12    6   34 1
  13    7    8 1
  14    7   15 1
  15    8    9 2
  16    8   35 1
  17    9   10 1
  18    9   12 1
  19   10   11 2
  20   12   13 1
  21   12   14 2
  22   13   36 1
  23   15   16 1
  24   15   37 1
  25   15   38 1
  26   16   17 ar
  27   16   21 ar
  28   17   18 ar
  29   18   19 ar
  30   18   39 1
  31   19   20 ar
  32   19   22 1
  33   20   21 ar
  34   20   40 1
  35   21   41 1
  36   22   24 ar
  37   22   28 ar
  38   24   25 ar
  39   24   29 1
  40   25   26 ar
  41   25   42 1
  42   26   27 ar
  43   26   43 1
  44   27   28 ar
  45   27   44 1
  46   28   45 1
  47   29   30 1
  48   29   31 2
  49   30   46 1
  50   30   47 1
  51   30   48 1

#	End of record

