#	Name: ASD01881765
#	Creating user name:	WinNT
#	Creation time:	15. 06. 2019 19:43

#	Modifying user name:	WinNT
#	Modification time:	15. 06. 2019 19:43

#	Program:	/corina/corina34_cracker 3.40 0067  02.08.2006

@<TRIPOS>MOLECULE
ASD01881765
  44   46    0    0    0
SMALL
NO_CHARGES


@<TRIPOS>ATOM
   1 C1            -0.0184     1.5028     0.0103 C.2     
   2 C2             0.0021    -0.0041     0.0020 C.3     
   3 O3             1.0236     2.1234     0.0037 O.2     
   4 N4            -1.1946     2.1607     0.0195 N.am    
   5 C5            -1.2145     3.6256     0.0275 C.3     
   6 C6            -0.5061     4.1521    -1.2223 C.3     
   7 C7            -2.6637     4.1159     0.0371 C.3     
   8 C8            -0.4943     4.1385     1.2762 C.3     
   9 O9             1.3556    -0.4620    -0.0134 O.3     
  10 N10            2.4198    -5.8351    -0.0519 N.pl3   
  11 N11            3.8173    -5.7157    -0.0652 N.2     
  12 N12            4.1407    -4.4707    -0.0622 N.2     
  13 C13            3.0352    -3.6995    -0.0472 C.ar    
  14 C14            1.9186    -4.5534    -0.0404 C.ar    
  15 C15            2.8360    -2.3121    -0.0374 C.ar    
  16 C16            1.5521    -1.8076    -0.0225 C.ar    
  17 C17            0.4556    -2.6664    -0.0161 C.ar    
  18 C18            0.6344    -4.0210    -0.0241 C.ar    
  19 C19            1.6459    -7.0791    -0.0558 C.3     
  20 C20            1.3910    -7.5257     1.3851 C.3     
  21 C21            0.4951    -8.7476     1.5980 C.3     
  22 C22            2.0033    -8.8549     1.8316 C.3     
  23 Br23           4.3187    -1.1385    -0.0457 Br      
  24 H24           -0.4983    -0.3791     0.8948 H       
  25 H25           -0.5153    -0.3696    -0.8850 H       
  26 H26           -2.0280     1.6644     0.0207 H       
  27 H27           -1.0192     3.7867    -2.1118 H       
  28 H28           -0.5209     5.2420    -1.2163 H       
  29 H29            0.5264     3.8028    -1.2290 H       
  30 H30           -3.1683     3.7408     0.9274 H       
  31 H31           -2.6785     5.2058     0.0430 H       
  32 H32           -3.1768     3.7505    -0.8525 H       
  33 H33            0.5382     3.7892     1.2694 H       
  34 H34           -0.5091     5.2284     1.2822 H       
  35 H35           -0.9989     3.7634     2.1665 H       
  36 H36           -0.5443    -2.2582    -0.0041 H       
  37 H37           -0.2224    -4.6786    -0.0189 H       
  38 H38            0.6932    -6.9127    -0.5586 H       
  39 H39            2.2045    -7.8527    -0.5826 H       
  40 H40            1.3335    -6.7249     2.1223 H       
  41 H41           -0.1516    -8.7508     2.4755 H       
  42 H42            0.0873    -9.2332     0.7115 H       
  43 H43            2.5878    -9.4111     1.0987 H       
  44 H44            2.3489    -8.9287     2.8627 H       
@<TRIPOS>BOND
   1    1    2 1
   2    1    3 2
   3    1    4 am
   4    2    9 1
   5    2   24 1
   6    2   25 1
   7    4    5 1
   8    4   26 1
   9    5    6 1
  10    5    8 1
  11    5    7 1
  12    6   27 1
  13    6   28 1
  14    6   29 1
  15    7   30 1
  16    7   31 1
  17    7   32 1
  18    8   33 1
  19    8   34 1
  20    8   35 1
  21    9   16 1
  22   10   11 1
  23   10   14 1
  24   10   19 1
  25   11   12 2
  26   12   13 1
  27   13   14 ar
  28   13   15 ar
  29   14   18 ar
  30   15   16 ar
  31   15   23 1
  32   16   17 ar
  33   17   18 ar
  34   17   36 1
  35   18   37 1
  36   19   20 1
  37   19   38 1
  38   19   39 1
  39   20   21 1
  40   20   22 1
  41   20   40 1
  42   21   22 1
  43   21   41 1
  44   21   42 1
  45   22   43 1
  46   22   44 1

#	End of record

