#	Name: ASD03240265
#	Creating user name:	WinNT
#	Creation time:	15. 06. 2019 20:34

#	Modifying user name:	WinNT
#	Modification time:	15. 06. 2019 20:34

#	Program:	/corina/corina34_cracker 3.40 0067  02.08.2006

@<TRIPOS>MOLECULE
ASD03240265
 103  108    0    0    0
SMALL
NO_CHARGES


@<TRIPOS>ATOM
   1 C1            -0.1141     1.2190    -0.6112 C.2     
   2 N2            -0.0093    -0.0227    -0.0304 N.pl3   
   3 C3            -3.6697     2.2407    -0.0319 C.3     
   4 C4            -2.4756     1.2899     0.0734 C.3     
   5 N5            -1.3115     1.8939    -0.5794 N.pl3   
   6 N6             0.9231     1.7587    -1.1873 N.2     
   7 N7            -4.8339     1.6367     0.6209 N.pl3   
   8 C8            -6.0433     2.3184     0.6530 C.ar    
   9 C9            -7.1582     1.7398     1.2782 C.ar    
  10 C10           -8.3651     2.4247     1.3086 C.ar    
  11 C11           -8.4626     3.6852     0.7168 C.ar    
  12 C12           -7.3460     4.2541     0.0958 C.ar    
  13 C13           -6.1477     3.5765     0.0707 C.ar    
  14 C14           -9.7432     4.4170     0.7459 C.2     
  15 N15           -9.8371     5.6340     0.1745 N.am    
  16 O16          -10.7142     3.9220     1.2856 O.2     
  17 C17          -11.0779     6.2803     0.1030 C.ar    
  18 C18          -11.1487     7.6622     0.2211 C.ar    
  19 C19          -12.2363     5.5397    -0.0916 C.ar    
  20 C20          -13.4592     6.1766    -0.1626 C.ar    
  21 C21          -13.5307     7.5581    -0.0388 C.ar    
  22 C22          -12.3715     8.2993     0.1506 C.ar    
  23 N23          -14.7698     8.2037    -0.1111 N.pl3   
  24 C24          -14.8452     9.6609     0.0194 C.3     
  25 C25          -15.9918     7.4225    -0.3174 C.3     
  26 C26           -7.0475     0.4002     1.9044 C.ar    
  27 C27           -6.4884    -0.6637     1.1782 C.ar    
  28 C28           -6.3758    -1.9002     1.7289 C.ar    
  29 C29           -6.8218    -2.1275     3.0430 C.ar    
  30 C30           -7.3876    -1.0603     3.7859 C.ar    
  31 C31           -7.4905     0.2106     3.2004 C.ar    
  32 C32          -16.5627     7.0208     1.0182 C.ar    
  33 C33          -14.7193    10.2944    -1.3421 C.ar    
  34 C34          -17.4722     7.8430     1.6567 C.ar    
  35 C35          -17.9958     7.4746     2.8818 C.ar    
  36 C36          -17.6102     6.2837     3.4683 C.ar    
  37 C37          -16.7013     5.4610     2.8295 C.ar    
  38 C38          -16.1810     5.8274     1.6023 C.ar    
  39 C39          -15.8502    10.5354    -2.0996 C.ar    
  40 C40          -15.7347    11.1164    -3.3486 C.ar    
  41 C41          -14.4883    11.4570    -3.8399 C.ar    
  42 C42          -13.3574    11.2169    -3.0820 C.ar    
  43 C43          -13.4733    10.6398    -1.8312 C.ar    
  44 C44          -18.1802     5.8825     4.8044 C.3     
  45 C45          -14.3623    12.0895    -5.2019 C.3     
  46 C46          -13.7095    13.4666    -5.0662 C.3     
  47 C47          -13.4975    11.2013    -6.0986 C.3     
  48 C48          -18.9221     4.5518     4.6636 C.3     
  49 C49          -17.0444     5.7283     5.8179 C.3     
  50 C50           -6.7169    -3.3975     3.6351 C.ar    
  51 C51           -7.1578    -3.5864     4.9089 C.ar    
  52 C52           -7.7139    -2.5377     5.6393 C.ar    
  53 C53           -7.8321    -1.2941     5.0996 C.ar    
  54 H54            0.8366    -0.4972    -0.0494 H       
  55 H55           -0.7811    -0.4244     0.3983 H       
  56 H56           -3.4274     3.1839     0.4576 H       
  57 H57           -3.8966     2.4241    -1.0821 H       
  58 H58           -2.2488     1.1064     1.1236 H       
  59 H59           -2.7180     0.3466    -0.4161 H       
  60 H60           -1.3854     2.7700    -0.9892 H       
  61 H61            1.7689     1.2842    -1.2063 H       
  62 H62           -4.7599     0.7606     1.0306 H       
  63 H63           -9.2263     1.9835     1.7883 H       
  64 H64           -7.4229     5.2293    -0.3620 H       
  65 H65           -5.2883     4.0203    -0.4098 H       
  66 H66           -9.0456     6.0623    -0.1872 H       
  67 H67          -10.2473     8.2384     0.3684 H       
  68 H68          -12.1807     4.4654    -0.1878 H       
  69 H69          -14.3600     5.6007    -0.3146 H       
  70 H70          -12.4270     9.3735     0.2469 H       
  71 H71          -15.8025     9.9370     0.4615 H       
  72 H72          -14.0351    10.0108     0.6593 H       
  73 H73          -16.7216     8.0254    -0.8579 H       
  74 H74          -15.7585     6.5290    -0.8963 H       
  75 H75           -6.1437    -0.4967     0.1684 H       
  76 H76           -5.9442    -2.7086     1.1575 H       
  77 H77           -7.9194     1.0323     3.7548 H       
  78 H78          -17.7735     8.7734     1.1985 H       
  79 H79          -18.7058     8.1173     3.3810 H       
  80 H80          -16.3998     4.5308     3.2879 H       
  81 H81          -15.4710     5.1847     1.1032 H       
  82 H82          -16.8240    10.2693    -1.7158 H       
  83 H83          -16.6182    11.3040    -3.9407 H       
  84 H84          -12.3836    11.4826    -3.4659 H       
  85 H85          -12.5898    10.4522    -1.2391 H       
  86 H86          -18.8731     6.6501     5.1491 H       
  87 H87          -15.3522    12.1988    -5.6447 H       
  88 H88          -13.6183    13.9241    -6.0513 H       
  89 H89          -14.3255    14.0994    -4.4273 H       
  90 H90          -12.7195    13.3574    -4.6233 H       
  91 H91          -13.9626    10.2203    -6.1953 H       
  92 H92          -13.4064    11.6589    -7.0838 H       
  93 H93          -12.5076    11.0921    -5.6558 H       
  94 H94          -18.2292     3.7842     4.3189 H       
  95 H95          -19.3344     4.2616     5.6299 H       
  96 H96          -19.7312     4.6616     3.9415 H       
  97 H97          -16.5159     6.6763     5.9183 H       
  98 H98          -17.4567     5.4382     6.7843 H       
  99 H99          -16.3516     4.9608     5.4733 H       
 100 H100          -6.2886    -4.2202     3.0818 H       
 101 H101          -7.0758    -4.5641     5.3605 H       
 102 H102          -8.0563    -2.7147     6.6482 H       
 103 H103          -8.2647    -0.4906     5.6773 H       
@<TRIPOS>BOND
   1    1    2 1
   2    1    6 2
   3    1    5 1
   4    2   54 1
   5    2   55 1
   6    3    4 1
   7    3    7 1
   8    3   56 1
   9    3   57 1
  10    4    5 1
  11    4   58 1
  12    4   59 1
  13    5   60 1
  14    6   61 1
  15    7    8 1
  16    7   62 1
  17    8    9 ar
  18    8   13 ar
  19    9   10 ar
  20    9   26 1
  21   10   11 ar
  22   10   63 1
  23   11   12 ar
  24   11   14 1
  25   12   13 ar
  26   12   64 1
  27   13   65 1
  28   14   15 am
  29   14   16 2
  30   15   17 1
  31   15   66 1
  32   17   18 ar
  33   17   19 ar
  34   18   22 ar
  35   18   67 1
  36   19   20 ar
  37   19   68 1
  38   20   21 ar
  39   20   69 1
  40   21   22 ar
  41   21   23 1
  42   22   70 1
  43   23   24 1
  44   23   25 1
  45   24   33 1
  46   24   71 1
  47   24   72 1
  48   25   32 1
  49   25   73 1
  50   25   74 1
  51   26   27 ar
  52   26   31 ar
  53   27   28 ar
  54   27   75 1
  55   28   29 ar
  56   28   76 1
  57   29   30 ar
  58   29   50 ar
  59   30   31 ar
  60   30   53 ar
  61   31   77 1
  62   32   34 ar
  63   32   38 ar
  64   33   39 ar
  65   33   43 ar
  66   34   35 ar
  67   34   78 1
  68   35   36 ar
  69   35   79 1
  70   36   37 ar
  71   36   44 1
  72   37   38 ar
  73   37   80 1
  74   38   81 1
  75   39   40 ar
  76   39   82 1
  77   40   41 ar
  78   40   83 1
  79   41   42 ar
  80   41   45 1
  81   42   43 ar
  82   42   84 1
  83   43   85 1
  84   44   48 1
  85   44   49 1
  86   44   86 1
  87   45   46 1
  88   45   47 1
  89   45   87 1
  90   46   88 1
  91   46   89 1
  92   46   90 1
  93   47   91 1
  94   47   92 1
  95   47   93 1
  96   48   94 1
  97   48   95 1
  98   48   96 1
  99   49   97 1
 100   49   98 1
 101   49   99 1
 102   50   51 ar
 103   50  100 1
 104   51   52 ar
 105   51  101 1
 106   52   53 ar
 107   52  102 1
 108   53  103 1

#	End of record

