#	Name: ASD01812034
#	Creating user name:	WinNT
#	Creation time:	15. 06. 2019 19:27

#	Modifying user name:	WinNT
#	Modification time:	15. 06. 2019 19:27

#	Program:	/corina/corina34_cracker 3.40 0067  02.08.2006

@<TRIPOS>MOLECULE
ASD01812034
  58   62    0    0    0
SMALL
NO_CHARGES


@<TRIPOS>ATOM
   1 C1            -0.0169     1.3921     0.0097 C.ar    
   2 C2             0.0021    -0.0041     0.0020 C.ar    
   3 C3             1.1598     2.0864     0.0022 C.ar    
   4 C4            -1.0372    -1.0364     0.0059 C.2     
   5 C5             1.2305    -0.6893    -0.0134 C.ar    
   6 C6             2.3748     1.4148    -0.0130 C.ar    
   7 C7            -0.4110    -2.2237    -0.0067 C.2     
   8 S8            -2.7789    -0.7702     0.0247 S.o2    
   9 C9             2.4165     0.0380    -0.0197 C.ar    
  10 N10            0.9443    -2.0361    -0.0183 N.pl3   
  11 C11           -3.0985     0.0223     1.6248 C.3     
  12 C12           -4.5728     0.3035     1.7605 C.2     
  13 O13           -5.3330    -0.0008     0.8660 O.2     
  14 N14           -5.0464     0.8931     2.8761 N.am    
  15 C15           -6.4112     1.1534     3.0018 C.2     
  16 C16           -7.4267     0.8559     2.0545 C.2     
  17 N17           -7.0127     1.7149     4.0175 N.2     
  18 C18           -8.5611     1.2994     2.6423 C.2     
  19 O19           -8.2042     1.8041     3.8322 O.3     
  20 C20           -9.9548     1.2358     2.0725 C.3     
  21 H21           -4.4384     1.1365     3.5916 H       
  22 O22           -3.0050     0.1446    -1.0389 O.2     
  23 O23           -3.3336    -2.0781    -0.0036 O.2     
  24 C24            1.9423    -3.1084    -0.0345 C.3     
  25 C25            2.3890    -3.4003     1.3749 C.ar    
  26 C26            1.7207    -4.3479     2.1285 C.ar    
  27 C27            2.1254    -4.6208     3.4230 C.ar    
  28 C28            3.1990    -3.9476     3.9694 C.ar    
  29 C29            3.8761    -2.9917     3.2145 C.ar    
  30 C30            3.4680    -2.7252     1.9093 C.ar    
  31 C31            5.0312    -2.2645     3.7966 C.ar    
  32 C32            5.4428    -2.5350     5.1001 C.ar    
  33 C33            6.5178    -1.8556     5.6366 C.ar    
  34 C34            7.1862    -0.9078     4.8828 C.ar    
  35 C35            6.7816    -0.6350     3.5885 C.ar    
  36 C36            5.7117    -1.3128     3.0399 C.ar    
  37 H37           -0.9583     1.9213     0.0170 H       
  38 H38            1.1446     3.1663     0.0078 H       
  39 H39            3.2966     1.9776    -0.0192 H       
  40 H40           -0.9039    -3.1847    -0.0068 H       
  41 H41            3.3667    -0.4752    -0.0311 H       
  42 H42           -2.7795    -0.6409     2.4289 H       
  43 H43           -2.5431     0.9584     1.6840 H       
  44 H44           -7.3182     0.3848     1.0887 H       
  45 H45          -10.4262     0.2989     2.3692 H       
  46 H46          -10.5408     2.0732     2.4512 H       
  47 H47           -9.9055     1.2892     0.9849 H       
  48 H48            1.5038    -4.0063    -0.4699 H       
  49 H49            2.8003    -2.7974    -0.6305 H       
  50 H50            0.8795    -4.8766     1.7051 H       
  51 H51            1.5999    -5.3618     4.0071 H       
  52 H52            3.5137    -4.1609     4.9803 H       
  53 H53            3.9892    -1.9854     1.3199 H       
  54 H54            4.9214    -3.2746     5.6896 H       
  55 H55            6.8374    -2.0642     6.6469 H       
  56 H56            8.0268    -0.3785     5.3065 H       
  57 H57            7.3066     0.1065     3.0047 H       
  58 H58            5.3966    -1.0991     2.0292 H       
@<TRIPOS>BOND
   1    1    2 ar
   2    1    3 ar
   3    1   37 1
   4    2    4 1
   5    2    5 ar
   6    3    6 ar
   7    3   38 1
   8    4    7 2
   9    4    8 1
  10    5    9 ar
  11    5   10 1
  12    6    9 ar
  13    6   39 1
  14    7   10 1
  15    7   40 1
  16    8   22 2
  17    8   23 2
  18    8   11 1
  19    9   41 1
  20   10   24 1
  21   11   12 1
  22   11   42 1
  23   11   43 1
  24   12   13 2
  25   12   14 am
  26   14   21 1
  27   14   15 1
  28   15   17 2
  29   15   16 1
  30   16   18 2
  31   16   44 1
  32   17   19 1
  33   18   20 1
  34   18   19 1
  35   20   45 1
  36   20   46 1
  37   20   47 1
  38   24   25 1
  39   24   48 1
  40   24   49 1
  41   25   26 ar
  42   25   30 ar
  43   26   27 ar
  44   26   50 1
  45   27   28 ar
  46   27   51 1
  47   28   29 ar
  48   28   52 1
  49   29   30 ar
  50   29   31 1
  51   30   53 1
  52   31   32 ar
  53   31   36 ar
  54   32   33 ar
  55   32   54 1
  56   33   34 ar
  57   33   55 1
  58   34   35 ar
  59   34   56 1
  60   35   36 ar
  61   35   57 1
  62   36   58 1

#	End of record

