#	Name: ASD01420113
#	Creating user name:	WinNT
#	Creation time:	15. 06. 2019 19:20

#	Modifying user name:	WinNT
#	Modification time:	15. 06. 2019 19:20

#	Program:	/corina/corina34_cracker 3.40 0067  02.08.2006

@<TRIPOS>MOLECULE
ASD01420113
  50   53    0    0    0
SMALL
NO_CHARGES


@<TRIPOS>ATOM
   1 O1             1.6259     0.9319     0.9358 O.3     
   2 C2             1.3096    -0.3125     0.5216 C.ar    
   3 C3             0.5154    -0.1854    -0.6316 C.ar    
   4 C4             0.3872     1.2547    -0.8672 C.2     
   5 C5             1.0860     1.8607     0.1224 C.2     
   6 C6             1.6120    -1.5799     1.0024 C.ar    
   7 C7             1.1347    -2.6968     0.3502 C.ar    
   8 C8             0.3502    -2.5717    -0.7888 C.ar    
   9 C9             0.0378    -1.3239    -1.2829 C.ar    
  10 C10            1.2341     3.3219     0.2856 C.ar    
  11 C11            0.1159     4.1532     0.1957 C.ar    
  12 C12            0.2581     5.5156     0.3490 C.ar    
  13 C13            1.5116     6.0618     0.5922 C.ar    
  14 C14            2.6264     5.2385     0.6819 C.ar    
  15 C15            2.4916     3.8745     0.5359 C.ar    
  16 O16            1.6477     7.4052     0.7423 O.3     
  17 Cl17          -0.2394    -3.9927    -1.5930 Cl      
  18 C18           -0.3694     1.9261    -1.9843 C.3     
  19 C19            2.9651     7.9001     0.9902 C.3     
  20 C20            4.3435     9.9524     1.3334 C.3     
  21 C21            2.9407     9.4308     1.0076 C.3     
  22 O22            3.4253     7.4180     2.2544 O.3     
  23 C23            4.7501     7.8350     2.5908 C.3     
  24 C24            4.7973     9.3631     2.6724 C.3     
  25 O25            2.5363     9.9165    -0.2740 O.3     
  26 C26            5.1444     7.2393     3.9437 C.3     
  27 O27            6.1336     9.7853     2.9517 O.3     
  28 O28            4.3143    11.3782     1.4240 O.3     
  29 O29            5.2121     5.8160     3.8360 O.3     
  30 H30            2.2214    -1.6905     1.8871 H       
  31 H31            1.3737    -3.6795     0.7290 H       
  32 H32           -0.5726    -1.2273    -2.1686 H       
  33 H33           -0.8592     3.7293     0.0059 H       
  34 H34           -0.6063     6.1593     0.2796 H       
  35 H35            3.5995     5.6671     0.8707 H       
  36 H36            3.3583     3.2344     0.6106 H       
  37 H37           -1.3679     2.1925    -1.6380 H       
  38 H38            0.1610     2.8274    -2.2919 H       
  39 H39           -0.4483     1.2442    -2.8309 H       
  40 H40            3.6367     7.5561     0.2037 H       
  41 H41            5.0365     9.6498     0.5483 H       
  42 H42            2.2385     9.7752     1.7669 H       
  43 H43            5.4451     7.4903     1.8251 H       
  44 H44            4.1327     9.7062     3.4653 H       
  45 H45            1.6552     9.6245    -0.5452 H       
  46 H46            6.1182     7.6279     4.2419 H       
  47 H47            4.3999     7.5121     4.6917 H       
  48 H48            6.2383    10.7446     3.0126 H       
  49 H49            4.0285    11.8182     0.6117 H       
  50 H50            5.4574     5.3705     4.6585 H       
@<TRIPOS>BOND
   1    1    2 1
   2    1    5 1
   3    2    3 ar
   4    2    6 ar
   5    3    4 1
   6    3    9 ar
   7    4    5 2
   8    4   18 1
   9    5   10 1
  10    6    7 ar
  11    6   30 1
  12    7    8 ar
  13    7   31 1
  14    8    9 ar
  15    8   17 1
  16    9   32 1
  17   10   11 ar
  18   10   15 ar
  19   11   12 ar
  20   11   33 1
  21   12   13 ar
  22   12   34 1
  23   13   14 ar
  24   13   16 1
  25   14   15 ar
  26   14   35 1
  27   15   36 1
  28   16   19 1
  29   18   37 1
  30   18   38 1
  31   18   39 1
  32   19   22 1
  33   19   21 1
  34   19   40 1
  35   20   21 1
  36   20   24 1
  37   20   28 1
  38   20   41 1
  39   21   25 1
  40   21   42 1
  41   22   23 1
  42   23   24 1
  43   23   26 1
  44   23   43 1
  45   24   27 1
  46   24   44 1
  47   25   45 1
  48   26   29 1
  49   26   46 1
  50   26   47 1
  51   27   48 1
  52   28   49 1
  53   29   50 1

#	End of record

