#	Name: ASD03330760
#	Creating user name:	WinNT
#	Creation time:	15. 06. 2019 20:37

#	Modifying user name:	WinNT
#	Modification time:	15. 06. 2019 20:37

#	Program:	/corina/corina34_cracker 3.40 0067  02.08.2006

@<TRIPOS>MOLECULE
ASD03330760
  63   65    0    0    0
SMALL
NO_CHARGES


@<TRIPOS>ATOM
   1 C1             0.7796     1.4280     0.2191 C.2     
   2 N2             0.6849     0.0722     0.2672 N.pl3   
   3 C3             2.0967     1.7318     0.0551 C.2     
   4 N4             2.7828     0.5694    -0.0120 N.2     
   5 C5             1.9427    -0.4319     0.1087 C.2     
   6 C6             2.3000    -1.8665     0.0786 C.ar    
   7 C7             2.6712     3.0857    -0.0339 C.2     
   8 O8             1.9466     4.0598     0.0400 O.2     
   9 C9             4.5707     4.5910    -0.2857 C.3     
  10 N10            3.9995     3.2448    -0.1973 N.am    
  11 C11            5.8897     4.5355    -1.0590 C.3     
  12 C12            4.8238     5.1215     1.1019 C.2     
  13 O13            4.5537     4.4420     2.0695 O.2     
  14 C14           -0.5525    -0.6866     0.4686 C.3     
  15 C15           -1.6388    -0.1310    -0.4576 C.3     
  16 C16           -2.3659     1.0190     0.2318 C.3     
  17 N17           -1.4559     1.7774     1.0924 N.3     
  18 C18           -0.3726     2.3944     0.3124 C.3     
  19 C19            1.8050    -2.7322     1.0549 C.ar    
  20 C20            3.1299    -2.3617    -0.9308 C.ar    
  21 C21            3.4599    -3.7035    -0.9529 C.ar    
  22 C22            2.9694    -4.5553     0.0228 C.ar    
  23 C23            2.1411    -4.0690     1.0226 C.ar    
  24 C24           -2.1860     2.7875     1.8699 C.3     
  25 N25            5.3503     6.3510     1.2676 N.am    
  26 C26            5.5964     6.8667     2.6166 C.3     
  27 C27            5.6116     4.1575    -2.5153 C.3     
  28 C28            5.0627     2.7306    -2.5759 C.3     
  29 C29            4.5839     5.1248    -3.1060 C.3     
  30 C30            6.9102     4.2390    -3.3202 C.3     
  31 F31            3.2947    -5.8663    -0.0031 F       
  32 F32            3.6080    -1.5309    -1.8828 F       
  33 H33            3.8728     5.2484    -0.8044 H       
  34 H34            4.5774     2.4679    -0.2562 H       
  35 H35            6.3733     5.5117    -1.0230 H       
  36 H36            6.5439     3.7891    -0.6085 H       
  37 H37           -0.3777    -1.7370     0.2361 H       
  38 H38           -0.8740    -0.5907     1.5057 H       
  39 H39           -1.1803     0.2301    -1.3782 H       
  40 H40           -2.3519    -0.9207    -0.6944 H       
  41 H41           -2.7806     1.6848    -0.5250 H       
  42 H42           -3.1784     0.6168     0.8370 H       
  43 H43           -0.0427     3.3083     0.8064 H       
  44 H44           -0.7330     2.6297    -0.6890 H       
  45 H45            1.1600    -2.3555     1.8349 H       
  46 H46            4.1008    -4.0884    -1.7323 H       
  47 H47            1.7620    -4.7381     1.7809 H       
  48 H48           -2.9305     2.2958     2.4960 H       
  49 H49           -1.4863     3.3363     2.5004 H       
  50 H50           -2.6828     3.4800     1.1904 H       
  51 H51            5.5663     6.8944     0.4938 H       
  52 H52            6.0213     7.8683     2.5508 H       
  53 H53            4.6567     6.9062     3.1675 H       
  54 H54            6.2942     6.2093     3.1352 H       
  55 H55            4.0630     2.7072    -2.1421 H       
  56 H56            5.0159     2.4032    -3.6145 H       
  57 H57            5.7181     2.0650    -2.0143 H       
  58 H58            4.9750     6.1414    -3.0628 H       
  59 H59            4.3858     4.8555    -4.1435 H       
  60 H60            3.6588     5.0668    -2.5325 H       
  61 H61            7.6424     3.5498    -2.8994 H       
  62 H62            6.7121     3.9697    -4.3577 H       
  63 H63            7.3013     5.2555    -3.2770 H       
@<TRIPOS>BOND
   1    1    2 1
   2    1    3 2
   3    1   18 1
   4    2   14 1
   5    2    5 1
   6    3    4 1
   7    3    7 1
   8    4    5 2
   9    5    6 1
  10    6   20 ar
  11    6   19 ar
  12    7    8 2
  13    7   10 am
  14    9   10 1
  15    9   11 1
  16    9   12 1
  17    9   33 1
  18   10   34 1
  19   11   27 1
  20   11   35 1
  21   11   36 1
  22   12   13 2
  23   12   25 am
  24   14   15 1
  25   14   37 1
  26   14   38 1
  27   15   16 1
  28   15   39 1
  29   15   40 1
  30   16   17 1
  31   16   41 1
  32   16   42 1
  33   17   18 1
  34   17   24 1
  35   18   43 1
  36   18   44 1
  37   19   23 ar
  38   19   45 1
  39   20   21 ar
  40   20   32 1
  41   21   22 ar
  42   21   46 1
  43   22   23 ar
  44   22   31 1
  45   23   47 1
  46   24   48 1
  47   24   49 1
  48   24   50 1
  49   25   26 1
  50   25   51 1
  51   26   52 1
  52   26   53 1
  53   26   54 1
  54   27   29 1
  55   27   30 1
  56   27   28 1
  57   28   55 1
  58   28   56 1
  59   28   57 1
  60   29   58 1
  61   29   59 1
  62   29   60 1
  63   30   61 1
  64   30   62 1
  65   30   63 1

#	End of record

