#	Name: ASD01720129
#	Creating user name:	WinNT
#	Creation time:	15. 06. 2019 19:23

#	Modifying user name:	WinNT
#	Modification time:	15. 06. 2019 19:23

#	Program:	/corina/corina34_cracker 3.40 0067  02.08.2006

@<TRIPOS>MOLECULE
ASD01720129
  78   83    0    0    0
SMALL
NO_CHARGES


@<TRIPOS>ATOM
   1 C1            -0.0165     1.3645     0.0095 C.ar    
   2 C2             0.0021    -0.0041     0.0020 C.ar    
   3 C3             1.2239    -0.6746    -0.0132 C.ar    
   4 N4             2.3695    -0.0074    -0.0202 N.ar    
   5 C5             2.4006     1.3140    -0.0134 C.ar    
   6 C6             1.2064     2.0517     0.0016 C.ar    
   7 N7             1.2414    -2.0588    -0.0209 N.3     
   8 O8             3.5909     1.9597    -0.0203 O.3     
   9 C9             4.7682     1.1498    -0.0350 C.3     
  10 C10            1.2369     3.5235     0.0092 C.2     
  11 O11            2.3026     4.1098     0.0021 O.2     
  12 N12            0.0839     4.2214     0.0239 N.am    
  13 C13            0.1143     5.6860     0.0315 C.3     
  14 C14           -1.1880     6.2262    -0.5628 C.3     
  15 C15           -1.1563     7.7558    -0.5549 C.3     
  16 C16            0.2643     6.1856     1.4698 C.3     
  17 C17            0.2959     7.7152     1.4778 C.3     
  18 C18           -1.0063     8.2554     0.8834 C.3     
  19 C19           -0.9197     5.6957     2.3060 C.3     
  20 C20           -2.3720     5.7363     0.2733 C.3     
  21 C21           -2.1903     7.7655     1.7195 C.3     
  22 C22           -2.2220     6.2358     1.7116 C.3     
  23 O23           -0.9767     9.6841     0.8908 O.3     
  24 C24           -2.1528    10.2926     0.3536 C.3     
  25 C25            2.6189    -2.5676    -0.0367 C.3     
  26 C26            2.6029    -4.0915     0.1020 C.3     
  27 C27            1.8023    -4.6961    -1.0548 C.3     
  28 C28            0.3863    -4.1134    -1.0446 C.3     
  29 C29            0.4666    -2.5888    -1.1501 C.3     
  30 C30            4.0370    -4.6231     0.0634 C.3     
  31 C31            4.0297    -6.1076     0.3226 C.2     
  32 O32            2.9846    -6.6816     0.5181 O.2     
  33 O33            5.1842    -6.7922     0.3362 O.3     
  34 C34            5.9873     2.0357    -0.0410 C.ar    
  35 C35            7.2514     1.4732    -0.0608 C.ar    
  36 C36            5.8430     3.4101    -0.0323 C.ar    
  37 C37            6.9614     4.2230    -0.0378 C.ar    
  38 C38            8.2244     3.6616    -0.0523 C.ar    
  39 C39            8.3700     2.2870    -0.0662 C.ar    
  40 Cl40           7.4334    -0.2531    -0.0783 Cl      
  41 H41           -0.9523     1.9036     0.0169 H       
  42 H42           -0.9235    -0.5605     0.0082 H       
  43 H43            4.7841     0.5158     0.8515 H       
  44 H44            4.7685     0.5254    -0.9284 H       
  45 H45           -0.7659     3.7538     0.0295 H       
  46 H46            0.9578     6.0350    -0.5642 H       
  47 H47           -1.2948     5.8703    -1.5875 H       
  48 H48           -0.3128     8.1049    -1.1506 H       
  49 H49           -2.0841     8.1407    -0.9783 H       
  50 H50            1.1920     5.8008     1.8933 H       
  51 H51            0.4028     8.0711     2.5025 H       
  52 H52            1.1394     8.0643     0.8821 H       
  53 H53           -0.9423     4.6059     2.3003 H       
  54 H54           -0.8129     6.0516     3.3307 H       
  55 H55           -3.2997     6.1211    -0.1501 H       
  56 H56           -2.3945     4.6465     0.2676 H       
  57 H57           -2.0835     8.1214     2.7442 H       
  58 H58           -3.1181     8.1503     1.2961 H       
  59 H59           -3.0655     5.8868     2.3073 H       
  60 H60           -3.0201     9.9858     0.9382 H       
  61 H61           -2.0520    11.3771     0.3948 H       
  62 H62           -2.2834     9.9789    -0.6821 H       
  63 H63            3.0964    -2.2935    -0.9775 H       
  64 H64            3.1761    -2.1332     0.7933 H       
  65 H65            2.1378    -4.3659     1.0489 H       
  66 H66            2.2888    -4.4546    -1.9998 H       
  67 H67            1.7516    -5.7784    -0.9363 H       
  68 H68           -0.1755    -4.5077    -1.8913 H       
  69 H69           -0.1136    -4.3881    -0.1158 H       
  70 H70           -0.5394    -2.1698    -1.1287 H       
  71 H71            0.9542    -2.3146    -2.0856 H       
  72 H72            4.4707    -4.4276    -0.9174 H       
  73 H73            4.6304    -4.1235     0.8291 H       
  74 H74            5.1291    -7.7425     0.5067 H       
  75 H75            4.8563     3.8492    -0.0217 H       
  76 H76            6.8481     5.2970    -0.0310 H       
  77 H77            9.0976     4.2971    -0.0572 H       
  78 H78            9.3568     1.8486    -0.0821 H       
@<TRIPOS>BOND
   1    1    2 ar
   2    1    6 ar
   3    1   41 1
   4    2    3 ar
   5    2   42 1
   6    3    4 ar
   7    3    7 1
   8    4    5 ar
   9    5    6 ar
  10    5    8 1
  11    6   10 1
  12    7   25 1
  13    7   29 1
  14    8    9 1
  15    9   34 1
  16    9   43 1
  17    9   44 1
  18   10   11 2
  19   10   12 am
  20   12   13 1
  21   12   45 1
  22   13   14 1
  23   13   16 1
  24   13   46 1
  25   14   15 1
  26   14   20 1
  27   14   47 1
  28   15   18 1
  29   15   48 1
  30   15   49 1
  31   16   17 1
  32   16   19 1
  33   16   50 1
  34   17   18 1
  35   17   51 1
  36   17   52 1
  37   18   21 1
  38   18   23 1
  39   19   22 1
  40   19   53 1
  41   19   54 1
  42   20   22 1
  43   20   55 1
  44   20   56 1
  45   21   22 1
  46   21   57 1
  47   21   58 1
  48   22   59 1
  49   23   24 1
  50   24   60 1
  51   24   61 1
  52   24   62 1
  53   25   26 1
  54   25   63 1
  55   25   64 1
  56   26   27 1
  57   26   30 1
  58   26   65 1
  59   27   28 1
  60   27   66 1
  61   27   67 1
  62   28   29 1
  63   28   68 1
  64   28   69 1
  65   29   70 1
  66   29   71 1
  67   30   31 1
  68   30   72 1
  69   30   73 1
  70   31   32 2
  71   31   33 1
  72   33   74 1
  73   34   36 ar
  74   34   35 ar
  75   35   39 ar
  76   35   40 1
  77   36   37 ar
  78   36   75 1
  79   37   38 ar
  80   37   76 1
  81   38   39 ar
  82   38   77 1
  83   39   78 1

#	End of record

