#	Name: ASD01916724
#	Creating user name:	WinNT
#	Creation time:	15. 06. 2019 20:07

#	Modifying user name:	WinNT
#	Modification time:	15. 06. 2019 20:07

#	Program:	/corina/corina34_cracker 3.40 0067  02.08.2006

@<TRIPOS>MOLECULE
ASD01916724
  32   34    0    0    0
SMALL
NO_CHARGES


@<TRIPOS>ATOM
   1 O1            -0.0161     1.3383     0.0094 O.3     
   2 C2             0.0021    -0.0041     0.0020 C.2     
   3 N3             1.2267    -0.4371    -0.0120 N.2     
   4 C4             2.0691     0.6320    -0.0143 C.ar    
   5 C5             1.2597     1.7766    -0.0004 C.ar    
   6 C6             1.8521     3.0454     0.0003 C.ar    
   7 C7             3.2427     3.1553    -0.0128 C.ar    
   8 C8             4.0320     2.0202    -0.0268 C.ar    
   9 C9             3.4585     0.7658    -0.0273 C.ar    
  10 C10            1.0359     4.2220     0.0140 C.1     
  11 N11            0.3885     5.1554     0.0248 N.1     
  12 C12           -1.2224    -0.8825     0.0098 C.3     
  13 C13           -1.6221    -1.1875     1.4548 C.3     
  14 C14           -2.8182    -2.0455     1.4624 C.1     
  15 C15           -3.7721    -2.7298     1.4684 C.1     
  16 C16           -4.9357    -3.5645     1.4757 C.ar    
  17 C17           -5.4859    -3.9746     2.6907 C.ar    
  18 C18           -6.6101    -4.7808     2.6811 C.ar    
  19 C19           -7.1492    -5.1520     1.4569 C.ar    
  20 C20           -6.5531    -4.7097     0.2905 C.ar    
  21 N21           -5.4860    -3.9379     0.3263 N.ar    
  22 H22            3.7048     4.1315    -0.0122 H       
  23 H23            5.1076     2.1166    -0.0376 H       
  24 H24            4.0851    -0.1138    -0.0376 H       
  25 H25           -2.0416    -0.3684    -0.4930 H       
  26 H26           -1.0042    -1.8146    -0.5113 H       
  27 H27           -0.8030    -1.7016     1.9576 H       
  28 H28           -1.8404    -0.2553     1.9759 H       
  29 H29           -5.0403    -3.6672     3.6253 H       
  30 H30           -7.0581    -5.1143     3.6055 H       
  31 H31           -8.0262    -5.7810     1.4160 H       
  32 H32           -6.9704    -4.9974    -0.6632 H       
@<TRIPOS>BOND
   1    1    2 1
   2    1    5 1
   3    2    3 2
   4    2   12 1
   5    3    4 1
   6    4    5 ar
   7    4    9 ar
   8    5    6 ar
   9    6    7 ar
  10    6   10 1
  11    7    8 ar
  12    7   22 1
  13    8    9 ar
  14    8   23 1
  15    9   24 1
  16   10   11 3
  17   12   13 1
  18   12   25 1
  19   12   26 1
  20   13   14 1
  21   13   27 1
  22   13   28 1
  23   14   15 3
  24   15   16 1
  25   16   17 ar
  26   16   21 ar
  27   17   18 ar
  28   17   29 1
  29   18   19 ar
  30   18   30 1
  31   19   20 ar
  32   19   31 1
  33   20   21 ar
  34   20   32 1

#	End of record

