#	Name: ASD01911508
#	Creating user name:	WinNT
#	Creation time:	15. 06. 2019 19:57

#	Modifying user name:	WinNT
#	Modification time:	15. 06. 2019 19:57

#	Program:	/corina/corina34_cracker 3.40 0067  02.08.2006

@<TRIPOS>MOLECULE
ASD01911508
  38   37    0    0    0
SMALL
NO_CHARGES


@<TRIPOS>ATOM
   1 C1            -0.0162     1.3436     0.0094 C.2     
   2 N2             0.0021    -0.0041     0.0020 N.am    
   3 O3             1.0277     1.9654     0.0028 O.2     
   4 O4            -1.1912     2.0008     0.0186 O.3     
   5 C5             1.2806    -0.7192    -0.0140 C.3     
   6 C6             1.0214    -2.2271    -0.0197 C.3     
   7 C7             2.3500    -2.9724    -0.1621 C.3     
   8 C8             3.2631    -2.6162     1.0128 C.3     
   9 C9             2.0909    -4.4803    -0.1677 C.3     
  10 C10            0.3467    -2.6335     1.2920 C.3     
  11 O11            2.9802    -2.5928    -1.3872 O.3     
  12 C12           -1.1349     3.4517     0.0262 C.3     
  13 C13           -0.4003     3.9401    -1.2239 C.3     
  14 C14           -2.5565     4.0172     0.0360 C.3     
  15 C15           -0.3885     3.9266     1.2745 C.3     
  16 H16           -0.8313    -0.5005     0.0073 H       
  17 H17            1.8400    -0.4434    -0.9079 H       
  18 H18            1.8570    -0.4529     0.8719 H       
  19 H19            0.3709    -2.4809    -0.8567 H       
  20 H20            2.7824    -2.9057     1.9473 H       
  21 H21            4.2096    -3.1471     0.9114 H       
  22 H22            3.4477    -1.5420     1.0168 H       
  23 H23            1.4404    -4.7340    -1.0047 H       
  24 H24            3.0374    -5.0112    -0.2692 H       
  25 H25            1.6102    -4.7698     0.7668 H       
  26 H26            0.1621    -3.7078     1.2880 H       
  27 H27            0.9972    -2.3798     2.1290 H       
  28 H28           -0.5998    -2.1026     1.3935 H       
  29 H29            2.4567    -2.7894    -2.1761 H       
  30 H30           -0.9321     3.6018    -2.1132 H       
  31 H31           -0.3581     5.0293    -1.2182 H       
  32 H32            0.6125     3.5373    -1.2309 H       
  33 H33           -3.0798     3.6692     0.9266 H       
  34 H34           -2.5142     5.1064     0.0417 H       
  35 H35           -3.0883     3.6789    -0.8533 H       
  36 H36            0.6243     3.5237     1.2675 H       
  37 H37           -0.3462     5.0157     1.2802 H       
  38 H38           -0.9118     3.5786     2.1651 H       
@<TRIPOS>BOND
   1    1    2 am
   2    1    3 2
   3    1    4 1
   4    2    5 1
   5    2   16 1
   6    4   12 1
   7    5    6 1
   8    5   17 1
   9    5   18 1
  10    6    7 1
  11    6   10 1
  12    6   19 1
  13    7    8 1
  14    7    9 1
  15    7   11 1
  16    8   20 1
  17    8   21 1
  18    8   22 1
  19    9   23 1
  20    9   24 1
  21    9   25 1
  22   10   26 1
  23   10   27 1
  24   10   28 1
  25   11   29 1
  26   12   13 1
  27   12   15 1
  28   12   14 1
  29   13   30 1
  30   13   31 1
  31   13   32 1
  32   14   33 1
  33   14   34 1
  34   14   35 1
  35   15   36 1
  36   15   37 1
  37   15   38 1

#	End of record

