#	Name: ASD08178416
#	Creating user name:	WinNT
#	Creation time:	15. 06. 2019 21:18

#	Modifying user name:	WinNT
#	Modification time:	15. 06. 2019 21:18

#	Program:	/corina/corina34_cracker 3.40 0067  02.08.2006

@<TRIPOS>MOLECULE
ASD08178416
  65   68    0    0    0
SMALL
NO_CHARGES


@<TRIPOS>ATOM
   1 C1            -4.0308    -3.8107     2.1779 C.ar    
   2 C2            -4.1793    -2.5031     1.7538 C.ar    
   3 C3            -5.2445    -1.7447     2.2032 C.ar    
   4 C4            -6.1636    -2.2923     3.0772 C.ar    
   5 C5            -6.0171    -3.6042     3.5039 C.ar    
   6 C6            -4.9472    -4.3628     3.0519 C.ar    
   7 C7            -3.1781    -1.9032     0.8004 C.3     
   8 C8            -3.6252    -2.1488    -0.6176 C.2     
   9 N9            -2.8802    -1.6987    -1.6466 N.am    
  10 O10           -4.6553    -2.7516    -0.8329 O.2     
  11 C11           -3.2356    -2.0178    -2.9567 C.ar    
  12 C12           -2.5327    -1.4671    -4.0265 C.ar    
  13 N13           -4.2394    -2.8501    -3.1899 N.ar    
  14 N14           -4.5976    -3.1696    -4.3802 N.ar    
  15 C15           -3.9918    -2.6922    -5.4497 C.ar    
  16 C16           -2.9250    -1.8165    -5.3097 C.ar    
  17 C17           -4.4546    -3.1024    -6.8240 C.3     
  18 C18           -4.4449    -4.6287    -6.9309 C.3     
  19 C19           -4.9148    -5.0452    -8.3261 C.3     
  20 C20           -4.9051    -6.5714    -8.4330 C.3     
  21 C21           -5.3679    -6.9817    -9.8072 C.2     
  22 N22           -4.6143    -7.1599   -10.8455 N.2     
  23 N23           -5.1948    -7.5048   -11.9123 N.2     
  24 C24           -6.4851    -7.6497   -11.8769 C.2     
  25 S25           -7.0322    -7.3128   -10.2889 S.3     
  26 N26           -7.2887    -8.0222   -12.9492 N.am    
  27 C27           -6.7348    -8.2672   -14.1532 C.2     
  28 C28           -7.6055    -8.6708   -15.3151 C.3     
  29 O29           -5.5356    -8.1628   -14.3016 O.2     
  30 C30           -6.7476    -8.8838   -16.5356 C.ar    
  31 C31           -6.2170   -10.1331   -16.7980 C.ar    
  32 C32           -5.4300   -10.3284   -17.9175 C.ar    
  33 C33           -5.1739    -9.2747   -18.7749 C.ar    
  34 C34           -5.7052    -8.0257   -18.5129 C.ar    
  35 C35           -6.4958    -7.8314   -17.3957 C.ar    
  36 O36           -6.9197    -4.1449     4.3640 O.3     
  37 C37           -6.7059    -5.5010     4.7608 C.3     
  38 F38           -5.4660    -5.6101     5.3994 F       
  39 F39           -7.7199    -5.8948     5.6406 F       
  40 F40           -6.7227    -6.3257     3.6308 F       
  41 H41           -3.2002    -4.4023     1.8222 H       
  42 H42           -5.3578    -0.7234     1.8710 H       
  43 H43           -6.9952    -1.6994     3.4283 H       
  44 H44           -4.8312    -5.3845     3.3823 H       
  45 H45           -3.1052    -0.8302     0.9777 H       
  46 H46           -2.2035    -2.3648     0.9592 H       
  47 H47           -2.0969    -1.1527    -1.4759 H       
  48 H48           -1.7083    -0.7892    -3.8613 H       
  49 H49           -2.4176    -1.4156    -6.1747 H       
  50 H50           -5.4661    -2.7328    -6.9921 H       
  51 H51           -3.7846    -2.6815    -7.5737 H       
  52 H52           -3.4334    -4.9983    -6.7627 H       
  53 H53           -5.1149    -5.0496    -6.1812 H       
  54 H54           -5.9263    -4.6756    -8.4943 H       
  55 H55           -4.2448    -4.6242    -9.0758 H       
  56 H56           -3.8936    -6.9410    -8.2648 H       
  57 H57           -5.5751    -6.9924    -7.6833 H       
  58 H58           -8.2478    -8.1057   -12.8305 H       
  59 H59           -8.1288    -9.5958   -15.0728 H       
  60 H60           -8.3326    -7.8837   -15.5149 H       
  61 H61           -6.4171   -10.9563   -16.1282 H       
  62 H62           -5.0149   -11.3043   -18.1222 H       
  63 H63           -4.5585    -9.4272   -19.6491 H       
  64 H64           -5.5049    -7.2024   -19.1825 H       
  65 H65           -6.9109    -6.8556   -17.1910 H       
@<TRIPOS>BOND
   1    1    2 ar
   2    1    6 ar
   3    1   41 1
   4    2    3 ar
   5    2    7 1
   6    3    4 ar
   7    3   42 1
   8    4    5 ar
   9    4   43 1
  10    5    6 ar
  11    5   36 1
  12    6   44 1
  13    7    8 1
  14    7   45 1
  15    7   46 1
  16    8    9 am
  17    8   10 2
  18    9   11 1
  19    9   47 1
  20   11   12 ar
  21   11   13 ar
  22   12   16 ar
  23   12   48 1
  24   13   14 ar
  25   14   15 ar
  26   15   16 ar
  27   15   17 1
  28   16   49 1
  29   17   18 1
  30   17   50 1
  31   17   51 1
  32   18   19 1
  33   18   52 1
  34   18   53 1
  35   19   20 1
  36   19   54 1
  37   19   55 1
  38   20   21 1
  39   20   56 1
  40   20   57 1
  41   21   22 2
  42   21   25 1
  43   22   23 1
  44   23   24 2
  45   24   25 1
  46   24   26 1
  47   26   27 am
  48   26   58 1
  49   27   28 1
  50   27   29 2
  51   28   30 1
  52   28   59 1
  53   28   60 1
  54   30   31 ar
  55   30   35 ar
  56   31   32 ar
  57   31   61 1
  58   32   33 ar
  59   32   62 1
  60   33   34 ar
  61   33   63 1
  62   34   35 ar
  63   34   64 1
  64   35   65 1
  65   36   37 1
  66   37   38 1
  67   37   39 1
  68   37   40 1

#	End of record

