#	Name: ASD01882000
#	Creating user name:	WinNT
#	Creation time:	15. 06. 2019 19:43

#	Modifying user name:	WinNT
#	Modification time:	15. 06. 2019 19:43

#	Program:	/corina/corina34_cracker 3.40 0067  02.08.2006

@<TRIPOS>MOLECULE
ASD01882000
  58   61    0    0    0
SMALL
NO_CHARGES


@<TRIPOS>ATOM
   1 N1            -0.0178     1.4650     0.0101 N.am    
   2 C2             0.0021    -0.0041     0.0020 C.3     
   3 C3             0.8803    -0.4916     1.1586 C.3     
   4 C4             2.2627     0.1563     1.0525 C.3     
   5 C5             2.1248     1.6768     1.1584 C.3     
   6 C6             1.2607     2.1889     0.0018 C.3     
   7 C7            -1.1868     2.1359     0.0193 C.2     
   8 O8            -2.2375     1.5256     0.0210 O.2     
   9 O9            -1.1902     3.4822     0.0266 O.3     
  10 C10            3.1537    -0.3549     2.1863 C.3     
  11 O11            4.4769     0.1586     2.0209 O.3     
  12 N12            8.3834    -1.1460     5.6325 N.pl3   
  13 N13            9.4115    -0.4147     5.0192 N.2     
  14 N14            8.9534     0.1694     3.9687 N.2     
  15 C15            7.6454    -0.1140     3.8077 C.ar    
  16 C16            7.2576    -0.9568     4.8638 C.ar    
  17 C17            6.6958     0.2604     2.8468 C.ar    
  18 C18            5.4004    -0.2029     2.9515 C.ar    
  19 C19            5.0315    -1.0377     4.0034 C.ar    
  20 C20            5.9461    -1.4103     4.9479 C.ar    
  21 C21            8.4889    -1.9566     6.8483 C.3     
  22 C22            8.1816    -1.0872     8.0691 C.3     
  23 C23            8.1244    -1.7789     9.4326 C.3     
  24 C24            9.3060    -0.8717     9.0841 C.3     
  25 Cl25           7.1474     1.3007     1.5324 Cl      
  26 C26           -2.4856     4.1381     0.0364 C.3     
  27 C27           -3.2605     3.7182     1.2870 C.3     
  28 C28           -2.2890     5.6554     0.0437 C.3     
  29 C29           -3.2723     3.7317    -1.2114 C.3     
  30 H30           -1.0118    -0.3840     0.1278 H       
  31 H31            0.4128    -0.3587    -0.9433 H       
  32 H32            0.4202    -0.2139     2.1069 H       
  33 H33            0.9816    -1.5757     1.1066 H       
  34 H34            2.7120    -0.1016     0.0934 H       
  35 H35            1.6530     1.9341     2.1067 H       
  36 H36            3.1119     2.1361     1.1062 H       
  37 H37            1.7740     2.0131    -0.9436 H       
  38 H38            1.0772     3.2560     0.1274 H       
  39 H39            2.7515    -0.0214     3.1430 H       
  40 H40            3.1813    -1.4443     2.1637 H       
  41 H41            4.0141    -1.3932     4.0735 H       
  42 H42            5.6500    -2.0578     5.7600 H       
  43 H43            7.7757    -2.7794     6.7993 H       
  44 H44            9.4995    -2.3563     6.9319 H       
  45 H45            7.4943    -0.2592     7.8956 H       
  46 H46            7.3997    -1.4058    10.1563 H       
  47 H47            8.3057    -2.8534     9.4599 H       
  48 H48           10.2647    -1.3493     8.8820 H       
  49 H49            9.3588     0.0983     9.5784 H       
  50 H50           -2.7000     4.0076     2.1759 H       
  51 H51           -4.2329     4.2105     1.2943 H       
  52 H52           -3.4005     2.6372     1.2818 H       
  53 H53           -1.7370     5.9545    -0.8473 H       
  54 H54           -3.2615     6.1477     0.0510 H       
  55 H55           -1.7285     5.9448     0.9326 H       
  56 H56           -3.4124     2.6508    -1.2166 H       
  57 H57           -4.2448     4.2241    -1.2041 H       
  58 H58           -2.7203     4.0309    -2.1024 H       
@<TRIPOS>BOND
   1    1    2 1
   2    1    6 1
   3    1    7 am
   4    2    3 1
   5    2   30 1
   6    2   31 1
   7    3    4 1
   8    3   32 1
   9    3   33 1
  10    4    5 1
  11    4   10 1
  12    4   34 1
  13    5    6 1
  14    5   35 1
  15    5   36 1
  16    6   37 1
  17    6   38 1
  18    7    8 2
  19    7    9 1
  20    9   26 1
  21   10   11 1
  22   10   39 1
  23   10   40 1
  24   11   18 1
  25   12   13 1
  26   12   16 1
  27   12   21 1
  28   13   14 2
  29   14   15 1
  30   15   16 ar
  31   15   17 ar
  32   16   20 ar
  33   17   18 ar
  34   17   25 1
  35   18   19 ar
  36   19   20 ar
  37   19   41 1
  38   20   42 1
  39   21   22 1
  40   21   43 1
  41   21   44 1
  42   22   23 1
  43   22   24 1
  44   22   45 1
  45   23   24 1
  46   23   46 1
  47   23   47 1
  48   24   48 1
  49   24   49 1
  50   26   27 1
  51   26   29 1
  52   26   28 1
  53   27   50 1
  54   27   51 1
  55   27   52 1
  56   28   53 1
  57   28   54 1
  58   28   55 1
  59   29   56 1
  60   29   57 1
  61   29   58 1

#	End of record

