#	Name: ASD01140225
#	Creating user name:	WinNT
#	Creation time:	15. 06. 2019 19:00

#	Modifying user name:	WinNT
#	Modification time:	15. 06. 2019 19:00

#	Program:	/corina/corina34_cracker 3.40 0067  02.08.2006

@<TRIPOS>MOLECULE
ASD01140225
  95  102    0    0    0
SMALL
NO_CHARGES


@<TRIPOS>ATOM
   1 C1             0.1787     1.6836     0.3851 C.ar    
   2 C2             0.0626     0.2912     0.3764 C.ar    
   3 C3             1.1960    -0.4985     0.2281 C.ar    
   4 C4             2.4587     0.0916     0.0865 C.ar    
   5 C5             2.5559     1.4853     0.0735 C.ar    
   6 C6             1.4159     2.2682     0.2345 C.ar    
   7 C7             3.6225    -0.7969    -0.0100 C.2     
   8 N8             4.6453    -0.6764    -0.7811 N.2     
   9 C9             4.7641     0.4285    -1.7395 C.3     
  10 C10            4.7657     1.7160    -0.9567 C.2     
  11 N11            3.7752     2.1368    -0.1318 N.pl3   
  12 C12           -1.2236    -0.3215     0.5208 C.1     
  13 C13            4.1763     3.3123     0.4244 C.2     
  14 C14            5.7403     2.6657    -0.9308 C.2     
  15 N15            5.3419     3.6321    -0.0617 N.2     
  16 C16           14.1252     7.1226    -3.1184 C.2     
  17 N17           13.8926     8.1777    -2.2920 N.2     
  18 C18           15.3338     7.3298    -3.7088 C.2     
  19 N19           15.8055     8.5155    -3.2526 N.pl3   
  20 C20           14.8968     9.0046    -2.3651 C.2     
  21 C21           16.0491     6.4175    -4.6722 C.3     
  22 N22           17.3319     6.0444    -4.0661 N.2     
  23 C23           18.2234     6.9251    -3.7686 C.2     
  24 C24           18.1457     8.3808    -3.9404 C.ar    
  25 C25           16.9978     9.1227    -3.6528 C.ar    
  26 C26           19.2849     9.0467    -4.4098 C.ar    
  27 C27           19.2813    10.4282    -4.5582 C.ar    
  28 C28           18.1363    11.1607    -4.2344 C.ar    
  29 C29           17.0108    10.5091    -3.7866 C.ar    
  30 C30           20.4495    11.1004    -5.0420 C.1     
  31 C31           -2.2781    -0.8237     0.6392 C.1     
  32 C32           21.4072    11.6515    -5.4385 C.1     
  33 C33           11.2400     4.7229    -2.9278 C.3     
  34 C34            9.0901     3.5801    -2.3669 C.3     
  35 C35            9.9592     4.8097    -2.0954 C.3     
  36 C36            3.6198    -1.9741     0.8893 C.ar    
  37 C37            4.3300    -3.1229     0.5410 C.ar    
  38 C38            4.3235    -4.2162     1.3827 C.ar    
  39 C39            3.6145    -4.1745     2.5700 C.ar    
  40 C40            2.9077    -3.0381     2.9207 C.ar    
  41 C41            2.9116    -1.9362     2.0902 C.ar    
  42 C42           19.4802     6.4056    -3.1809 C.ar    
  43 C43           20.2668     7.2262    -2.3727 C.ar    
  44 C44           21.4363     6.7367    -1.8283 C.ar    
  45 C45           21.8292     5.4348    -2.0826 C.ar    
  46 C46           21.0532     4.6160    -2.8835 C.ar    
  47 C47           19.8786     5.0922    -3.4290 C.ar    
  48 Si48          -3.9848    -1.6366     0.8308 Si      
  49 C49           -3.7994    -3.4896     0.7785 C.3     
  50 C50           -4.7329    -1.1332     2.4610 C.3     
  51 C51           -5.0954    -1.0841    -0.5592 C.3     
  52 C52            6.9942     2.6494    -1.7011 C.2     
  53 O53            7.8746     3.6626    -1.5769 O.3     
  54 O54            7.2359     1.7225    -2.4492 O.2     
  55 C55           13.2375     5.9680    -3.3299 C.2     
  56 O56           12.0647     5.8898    -2.6701 O.3     
  57 O57           13.5619     5.0850    -4.0996 O.2     
  58 H58           -0.7002     2.2996     0.5052 H       
  59 H59            1.1030    -1.5744     0.2222 H       
  60 H60            1.5030     3.3447     0.2410 H       
  61 H61            5.6955     0.3346    -2.2980 H       
  62 H62            3.9177     0.4147    -2.4262 H       
  63 H63            3.6192     3.8864     1.1500 H       
  64 H64           14.9923     9.9275    -1.8123 H       
  65 H65           15.4502     5.5240    -4.8485 H       
  66 H66           16.2231     6.9381    -5.6139 H       
  67 H67           20.1721     8.4828    -4.6576 H       
  68 H68           18.1350    12.2359    -4.3361 H       
  69 H69           16.1280    11.0782    -3.5354 H       
  70 H70           22.2638    12.1444    -5.7932 H       
  71 H71           11.7899     3.8220    -2.6555 H       
  72 H72           10.9834     4.6859    -3.9865 H       
  73 H73            8.8335     3.5432    -3.4256 H       
  74 H74            9.6400     2.6793    -2.0946 H       
  75 H75           10.2157     4.8467    -1.0366 H       
  76 H76            9.4093     5.7106    -2.3676 H       
  77 H77            4.8835    -3.1567    -0.3857 H       
  78 H78            4.8728    -5.1064     1.1140 H       
  79 H79            3.6124    -5.0328     3.2255 H       
  80 H80            2.3558    -3.0116     3.8486 H       
  81 H81            2.3598    -1.0494     2.3652 H       
  82 H82           19.9613     8.2428    -2.1738 H       
  83 H83           22.0465     7.3712    -1.2026 H       
  84 H84           22.7456     5.0562    -1.6545 H       
  85 H85           21.3651     3.6005    -3.0784 H       
  86 H86           19.2735     4.4520    -4.0537 H       
  87 H87           -3.1496    -3.8129     1.5917 H       
  88 H88           -4.7785    -3.9559     0.8884 H       
  89 H89           -3.3617    -3.7842    -0.1753 H       
  90 H90           -4.8414    -0.0490     2.4917 H       
  91 H91           -5.7120    -1.5995     2.5710 H       
  92 H92           -4.0831    -1.4564     3.2743 H       
  93 H93           -4.6576    -1.3786    -1.5130 H       
  94 H94           -6.0744    -1.5504    -0.4492 H       
  95 H95           -5.2038     0.0001    -0.5285 H       
@<TRIPOS>BOND
   1    1    2 ar
   2    1    6 ar
   3    1   58 1
   4    2    3 ar
   5    2   12 1
   6    3    4 ar
   7    3   59 1
   8    4    5 ar
   9    4    7 1
  10    5    6 ar
  11    5   11 1
  12    6   60 1
  13    7    8 2
  14    7   36 1
  15    8    9 1
  16    9   10 1
  17    9   61 1
  18    9   62 1
  19   10   11 1
  20   10   14 2
  21   11   13 1
  22   12   31 3
  23   13   15 2
  24   13   63 1
  25   14   15 1
  26   14   52 1
  27   16   17 1
  28   16   18 2
  29   16   55 1
  30   17   20 2
  31   18   19 1
  32   18   21 1
  33   19   20 1
  34   19   25 1
  35   20   64 1
  36   21   22 1
  37   21   65 1
  38   21   66 1
  39   22   23 2
  40   23   24 1
  41   23   42 1
  42   24   25 ar
  43   24   26 ar
  44   25   29 ar
  45   26   27 ar
  46   26   67 1
  47   27   28 ar
  48   27   30 1
  49   28   29 ar
  50   28   68 1
  51   29   69 1
  52   30   32 3
  53   31   48 1
  54   32   70 1
  55   33   35 1
  56   33   56 1
  57   33   71 1
  58   33   72 1
  59   34   35 1
  60   34   53 1
  61   34   73 1
  62   34   74 1
  63   35   75 1
  64   35   76 1
  65   36   37 ar
  66   36   41 ar
  67   37   38 ar
  68   37   77 1
  69   38   39 ar
  70   38   78 1
  71   39   40 ar
  72   39   79 1
  73   40   41 ar
  74   40   80 1
  75   41   81 1
  76   42   43 ar
  77   42   47 ar
  78   43   44 ar
  79   43   82 1
  80   44   45 ar
  81   44   83 1
  82   45   46 ar
  83   45   84 1
  84   46   47 ar
  85   46   85 1
  86   47   86 1
  87   48   49 1
  88   48   50 1
  89   48   51 1
  90   49   87 1
  91   49   88 1
  92   49   89 1
  93   50   90 1
  94   50   91 1
  95   50   92 1
  96   51   93 1
  97   51   94 1
  98   51   95 1
  99   52   53 1
 100   52   54 2
 101   55   56 1
 102   55   57 2

#	End of record

