#	Name: ASD03430684
#	Creating user name:	WinNT
#	Creation time:	15. 06. 2019 20:41

#	Modifying user name:	WinNT
#	Modification time:	15. 06. 2019 20:41

#	Program:	/corina/corina34_cracker 3.40 0067  02.08.2006

@<TRIPOS>MOLECULE
ASD03430684
  61   67    0    0    0
SMALL
NO_CHARGES


@<TRIPOS>ATOM
   1 C1             2.6647     0.3948    -0.0350 C.ar    
   2 C2             2.0931    -0.8655    -0.0630 C.ar    
   3 C3             2.8873    -1.9764    -0.2628 C.ar    
   4 C4             4.2617    -1.8459    -0.4380 C.ar    
   5 C5             4.8300    -0.5747    -0.4120 C.ar    
   6 C6             4.0343     0.5369    -0.2078 C.ar    
   7 O7             4.8569    -3.0617    -0.6045 O.3     
   8 C8             2.5828    -3.4481    -0.3490 C.3     
   9 C9             3.8590    -4.0353    -0.9670 C.3     
  10 C10            1.0162    -4.6056     0.8871 C.ar    
  11 C11            2.2868    -4.0456     0.9951 C.ar    
  12 C12            1.3706    -3.7334    -1.1871 C.2     
  13 N13            0.5086    -4.4068    -0.3990 N.am    
  14 O14            1.1999    -3.4192    -2.3460 O.2     
  15 C15            2.9877    -4.1192     2.1776 C.ar    
  16 C16            2.4311    -4.7533     3.2746 C.ar    
  17 C17            1.1700    -5.3121     3.1793 C.ar    
  18 C18            0.4639    -5.2412     1.9960 C.ar    
  19 C19           -0.8072    -4.8759    -0.8404 C.3     
  20 C20           -1.8809    -4.1933    -0.0327 C.ar    
  21 C21           -0.9931    -4.5503    -2.3000 C.ar    
  22 O22            4.5900     1.7835    -0.1693 O.3     
  23 O23            1.8891     1.4994     0.1674 O.3     
  24 C24           -3.0165    -4.8898     0.3361 C.ar    
  25 C25           -4.0014    -4.2635     1.0769 C.ar    
  26 C26           -3.8503    -2.9409     1.4493 C.ar    
  27 C27           -2.7142    -2.2446     1.0813 C.ar    
  28 C28           -1.7274    -2.8722     0.3442 C.ar    
  29 C29           -0.9680    -5.5613    -3.2424 C.ar    
  30 C30           -1.1384    -5.2625    -4.5813 C.ar    
  31 C31           -1.3344    -3.9528    -4.9777 C.ar    
  32 C32           -1.3603    -2.9419    -4.0352 C.ar    
  33 C33           -1.1943    -3.2412    -2.6959 C.ar    
  34 C34            2.0781     2.1763     1.4119 C.3     
  35 C35            3.2468     3.1454     1.3243 C.3     
  36 C36            4.5680     2.4370     1.1011 C.3     
  37 H37            1.0276    -0.9794     0.0717 H       
  38 H38            5.8945    -0.4573    -0.5516 H       
  39 H39            3.7659    -4.1094    -2.0505 H       
  40 H40            4.0893    -5.0069    -0.5298 H       
  41 H41            3.9727    -3.6823     2.2492 H       
  42 H42            2.9804    -4.8118     4.2026 H       
  43 H43            0.7355    -5.8069     4.0353 H       
  44 H44           -0.5207    -5.6800     1.9298 H       
  45 H45           -0.8753    -5.9544    -0.6972 H       
  46 H46           -3.1345    -5.9231     0.0451 H       
  47 H47           -4.8890    -4.8075     1.3644 H       
  48 H48           -4.6201    -2.4514     2.0275 H       
  49 H49           -2.5964    -1.2112     1.3720 H       
  50 H50           -0.8398    -2.3282     0.0567 H       
  51 H51           -0.8149    -6.5845    -2.9327 H       
  52 H52           -1.1181    -6.0523    -5.3176 H       
  53 H53           -1.4668    -3.7193    -6.0238 H       
  54 H54           -1.5131    -1.9186    -4.3450 H       
  55 H55           -1.2146    -2.4514    -1.9595 H       
  56 H56            1.1720     2.7282     1.6618 H       
  57 H57            2.2777     1.4427     2.1930 H       
  58 H58            3.0711     3.8368     0.5002 H       
  59 H59            3.3050     3.7132     2.2529 H       
  60 H60            4.7150     1.6964     1.8872 H       
  61 H61            5.3770     3.1663     1.1411 H       
@<TRIPOS>BOND
   1    1    2 ar
   2    1    6 ar
   3    1   23 1
   4    2    3 ar
   5    2   37 1
   6    3    4 ar
   7    3    8 1
   8    4    5 ar
   9    4    7 1
  10    5    6 ar
  11    5   38 1
  12    6   22 1
  13    7    9 1
  14    8    9 1
  15    8   11 1
  16    8   12 1
  17    9   39 1
  18    9   40 1
  19   10   11 ar
  20   10   13 1
  21   10   18 ar
  22   11   15 ar
  23   12   13 am
  24   12   14 2
  25   13   19 1
  26   15   16 ar
  27   15   41 1
  28   16   17 ar
  29   16   42 1
  30   17   18 ar
  31   17   43 1
  32   18   44 1
  33   19   20 1
  34   19   21 1
  35   19   45 1
  36   20   24 ar
  37   20   28 ar
  38   21   29 ar
  39   21   33 ar
  40   22   36 1
  41   23   34 1
  42   24   25 ar
  43   24   46 1
  44   25   26 ar
  45   25   47 1
  46   26   27 ar
  47   26   48 1
  48   27   28 ar
  49   27   49 1
  50   28   50 1
  51   29   30 ar
  52   29   51 1
  53   30   31 ar
  54   30   52 1
  55   31   32 ar
  56   31   53 1
  57   32   33 ar
  58   32   54 1
  59   33   55 1
  60   34   35 1
  61   34   56 1
  62   34   57 1
  63   35   36 1
  64   35   58 1
  65   35   59 1
  66   36   60 1
  67   36   61 1

#	End of record

