#	Name: ASD01810271
#	Creating user name:	WinNT
#	Creation time:	15. 06. 2019 19:24

#	Modifying user name:	WinNT
#	Modification time:	15. 06. 2019 19:24

#	Program:	/corina/corina34_cracker 3.40 0067  02.08.2006

@<TRIPOS>MOLECULE
ASD01810271
  45   48    0    0    0
SMALL
NO_CHARGES


@<TRIPOS>ATOM
   1 C1            -0.0167     1.3832     0.0096 C.ar    
   2 C2             0.0021    -0.0041     0.0020 C.ar    
   3 C3             1.1959    -0.6919    -0.0130 C.ar    
   4 C4             2.4007     0.0059    -0.0207 C.ar    
   5 C5             2.3789     1.4111    -0.0130 C.ar    
   6 C6             1.1632     2.0941     0.0022 C.ar    
   7 N7             3.6013    -0.6705    -0.0353 N.pl3   
   8 C8             4.7860    -0.0462    -0.0428 C.2     
   9 C9             4.8924     1.3300    -0.0360 C.2     
  10 C10            3.6622     2.1381    -0.0214 C.2     
  11 O11            3.7023     3.3559    -0.0152 O.2     
  12 C12            3.5807    -2.1353    -0.0424 C.3     
  13 C13            3.5604    -2.6305    -1.4656 C.ar    
  14 C14            4.7506    -2.8737    -2.1275 C.ar    
  15 C15            4.7384    -3.3276    -3.4306 C.ar    
  16 C16            3.5231    -3.5411    -4.0801 C.ar    
  17 C17            2.3268    -3.2942    -3.4078 C.ar    
  18 C18            2.3516    -2.8455    -2.1031 C.ar    
  19 C19            3.5032    -4.0280    -5.4795 C.ar    
  20 C20            6.2117     1.9776    -0.0437 C.2     
  21 O21            6.3025     3.3226    -0.0369 O.3     
  22 O22            7.2212     1.3003    -0.0561 O.2     
  23 C23            4.2757    -3.3986    -6.4509 C.ar    
  24 C24            4.2539    -3.8550    -7.7538 C.ar    
  25 C25            3.4668    -4.9391    -8.1044 C.ar    
  26 C26            2.6939    -5.5767    -7.1560 C.ar    
  27 C27            2.7074    -5.1333    -5.8331 C.ar    
  28 C28            1.9072    -5.7910    -4.8443 C.1     
  29 N29            1.2725    -6.3128    -4.0599 N.1     
  30 H30           -0.9606     1.9081     0.0170 H       
  31 H31           -0.9293    -0.5508     0.0083 H       
  32 H32            1.1970    -1.7719    -0.0185 H       
  33 H33            1.1468     3.1740     0.0078 H       
  34 H34            5.6885    -0.6393    -0.0542 H       
  35 H35            4.4703    -2.5136     0.4612 H       
  36 H36            2.6906    -2.4887     0.4779 H       
  37 H37            5.6912    -2.7076    -1.6235 H       
  38 H38            5.6682    -3.5168    -3.9464 H       
  39 H39            1.3825    -3.4579    -3.9058 H       
  40 H40            1.4257    -2.6539    -1.5813 H       
  41 H41            7.1917     3.7026    -0.0424 H       
  42 H42            4.8922    -2.5525    -6.1856 H       
  43 H43            4.8545    -3.3631    -8.5046 H       
  44 H44            3.4577    -5.2874    -9.1267 H       
  45 H45            2.0818    -6.4211    -7.4366 H       
@<TRIPOS>BOND
   1    1    2 ar
   2    1    6 ar
   3    1   30 1
   4    2    3 ar
   5    2   31 1
   6    3    4 ar
   7    3   32 1
   8    4    5 ar
   9    4    7 1
  10    5    6 ar
  11    5   10 1
  12    6   33 1
  13    7    8 1
  14    7   12 1
  15    8    9 2
  16    8   34 1
  17    9   10 1
  18    9   20 1
  19   10   11 2
  20   12   13 1
  21   12   35 1
  22   12   36 1
  23   13   14 ar
  24   13   18 ar
  25   14   15 ar
  26   14   37 1
  27   15   16 ar
  28   15   38 1
  29   16   17 ar
  30   16   19 1
  31   17   18 ar
  32   17   39 1
  33   18   40 1
  34   19   23 ar
  35   19   27 ar
  36   20   21 1
  37   20   22 2
  38   21   41 1
  39   23   24 ar
  40   23   42 1
  41   24   25 ar
  42   24   43 1
  43   25   26 ar
  44   25   44 1
  45   26   27 ar
  46   26   45 1
  47   27   28 1
  48   28   29 3

#	End of record

