#	Name: ASD01885792
#	Creating user name:	WinNT
#	Creation time:	15. 06. 2019 19:50

#	Modifying user name:	WinNT
#	Modification time:	15. 06. 2019 19:50

#	Program:	/corina/corina34_cracker 3.40 0067  02.08.2006

@<TRIPOS>MOLECULE
ASD01885792
  65   67    0    0    0
SMALL
NO_CHARGES


@<TRIPOS>ATOM
   1 C1            -0.0160     1.3291     0.0093 C.ar    
   2 C2            -1.2522     2.0239     0.0189 C.ar    
   3 C3            -2.4598     1.2808     0.0210 C.ar    
   4 C4            -2.3703    -0.1044     0.0135 C.ar    
   5 C5            -1.1104    -0.7137     0.0043 C.ar    
   6 N6             0.0021    -0.0041     0.0020 N.ar    
   7 C7             1.1365     3.4282     0.0092 C.ar    
   8 C8            -0.0805     4.1063     0.0248 C.ar    
   9 C9            -1.2606     3.4245     0.0266 C.ar    
  10 C10           -3.7750     1.9611     0.0313 C.ar    
  11 C11           -1.0235    -2.1940    -0.0038 C.2     
  12 C12            2.4228     4.2133     0.0076 C.3     
  13 N13            2.8509     4.4547     1.3920 N.3     
  14 C14            1.1823     2.0683     0.0019 C.ar    
  15 N15            0.1812    -2.7982    -0.0132 N.am    
  16 O16           -2.0383    -2.8621    -0.0018 O.2     
  17 C17            4.2124     5.0061     1.4337 C.3     
  18 C18            4.5898     5.3170     2.8839 C.3     
  19 N19            4.4973     4.0888     3.6856 N.3     
  20 C20            3.1357     3.5374     3.6439 C.3     
  21 C21            2.7583     3.2265     2.1936 C.3     
  22 C22            6.0219     5.8532     2.9350 C.3     
  23 F23            6.1102     7.0210     2.1698 F       
  24 F24            6.3665     6.1373     4.2608 F       
  25 F25            6.8985     4.8916     2.4211 F       
  26 C26            4.9254     4.3302     5.0699 C.3     
  27 C27           -4.7577     1.5985    -0.8903 C.ar    
  28 C28           -5.9812     2.2347    -0.8763 C.ar    
  29 C29           -6.2354     3.2328     0.0512 C.ar    
  30 C30           -5.2623     3.5968     0.9685 C.ar    
  31 C31           -4.0376     2.9626     0.9663 C.ar    
  32 F32           -7.4355     3.8531     0.0609 F       
  33 C33            4.5839     3.1112     5.9292 C.3     
  34 H34           -3.2662    -0.7075     0.0151 H       
  35 H35           -0.0888     5.1862     0.0355 H       
  36 H36           -2.1976     3.9615     0.0335 H       
  37 H37            3.1928     3.6481    -0.5175 H       
  38 H38            2.2656     5.1673    -0.4957 H       
  39 H39            2.1340     1.5579    -0.0092 H       
  40 H40            0.9913    -2.2648    -0.0147 H       
  41 H41            0.2380    -3.7665    -0.0184 H       
  42 H42            4.9124     4.2779     1.0239 H       
  43 H43            4.2523     5.9215     0.8433 H       
  44 H44            3.9067     6.0657     3.2850 H       
  45 H45            3.0958     2.6220     4.2343 H       
  46 H46            2.4358     4.2656     4.0536 H       
  47 H47            1.7381     2.8445     2.1572 H       
  48 H48            3.4417     2.4781     1.7924 H       
  49 H49            6.0017     4.5009     5.0929 H       
  50 H50            4.4099     5.2070     5.4620 H       
  51 H51           -4.5605     0.8212    -1.6137 H       
  52 H52           -6.7425     1.9551    -1.5896 H       
  53 H53           -5.4648     4.3756     1.6888 H       
  54 H54           -3.2799     3.2470     1.6815 H       
  55 H55            4.9015     3.2903     6.9564 H       
  56 H56            3.5076     2.9405     5.9063 H       
  57 H57            5.0993     2.2344     5.5372 H       
  58 C58           12.9004    13.9281    12.8616 C.3     
  59 C59           12.9211    12.3983    12.8532 C.3     
  60 H60           13.9230    14.3054    12.8539 H       
  61 H61           12.3732    14.2892    11.9786 H       
  62 H62           12.3902    14.2797    13.7584 H       
  63 H63           13.4483    12.0372    13.7363 H       
  64 H64           11.8985    12.0210    12.8610 H       
  65 H65           13.4313    12.0468    11.9564 H       
@<TRIPOS>BOND
   1    1    6 ar
   2    1   14 ar
   3    1    2 ar
   4    2    3 ar
   5    2    9 ar
   6    3   10 1
   7    3    4 ar
   8    4    5 ar
   9    4   34 1
  10    5   11 1
  11    5    6 ar
  12    7   12 1
  13    7    8 ar
  14    7   14 ar
  15    8    9 ar
  16    8   35 1
  17    9   36 1
  18   10   27 ar
  19   10   31 ar
  20   11   15 am
  21   11   16 2
  22   12   13 1
  23   12   37 1
  24   12   38 1
  25   13   17 1
  26   13   21 1
  27   14   39 1
  28   15   40 1
  29   15   41 1
  30   17   18 1
  31   17   42 1
  32   17   43 1
  33   18   22 1
  34   18   19 1
  35   18   44 1
  36   19   20 1
  37   19   26 1
  38   20   21 1
  39   20   45 1
  40   20   46 1
  41   21   47 1
  42   21   48 1
  43   22   23 1
  44   22   24 1
  45   22   25 1
  46   26   33 1
  47   26   49 1
  48   26   50 1
  49   27   28 ar
  50   27   51 1
  51   28   29 ar
  52   28   52 1
  53   29   30 ar
  54   29   32 1
  55   30   31 ar
  56   30   53 1
  57   31   54 1
  58   33   55 1
  59   33   56 1
  60   33   57 1
  61   58   59 1
  62   58   60 1
  63   58   61 1
  64   58   62 1
  65   59   63 1
  66   59   64 1
  67   59   65 1

#	End of record

