#	Name: ASD02038095
#	Creating user name:	WinNT
#	Creation time:	15. 06. 2019 20:16

#	Modifying user name:	WinNT
#	Modification time:	15. 06. 2019 20:16

#	Program:	/corina/corina34_cracker 3.40 0067  02.08.2006

@<TRIPOS>MOLECULE
ASD02038095
  54   56    0    0    0
SMALL
NO_CHARGES


@<TRIPOS>ATOM
   1 C1            -0.1842     1.8142    -1.9476 C.ar    
   2 C2             0.7003     2.3222    -1.0050 C.ar    
   3 C3             0.2438     0.8293    -2.8146 C.ar    
   4 N4             1.4788     0.3674    -2.7578 N.ar    
   5 C5             2.3514     0.8259    -1.8739 C.ar    
   6 C6             1.9879     1.8187    -0.9694 C.ar    
   7 N7             3.6422     0.3107    -1.8493 N.3     
   8 C8             3.8170    -0.7215    -2.8806 C.3     
   9 C9             5.2691    -1.2053    -2.8734 C.3     
  10 N10            5.6001    -1.7332    -1.5425 N.3     
  11 C11            5.4252    -0.7011    -0.5112 C.3     
  12 C12            3.9732    -0.2173    -0.5184 C.3     
  13 C13            6.9642    -2.2777    -1.5165 C.3     
  14 C14            7.0395    -3.5086    -2.4221 C.3     
  15 C15            8.4825    -4.0142    -2.4766 C.3     
  16 O16            6.1941    -4.5359    -1.9007 O.3     
  17 O17            8.5750    -5.0908    -3.4117 O.3     
  18 C18            9.7994    -5.6579    -3.5812 C.ar    
  19 C19            9.9596    -6.7075    -4.4737 C.ar    
  20 C20           11.2027    -7.2837    -4.6467 C.ar    
  21 C21           12.2925    -6.8120    -3.9269 C.ar    
  22 C22           12.1312    -5.7612    -3.0336 C.ar    
  23 C23           10.8884    -5.1826    -2.8657 C.ar    
  24 N24           13.5524    -7.3956    -4.1013 N.am    
  25 S25           14.1622    -8.4104    -2.9435 S.o2    
  26 O26           15.4321    -8.7973    -3.4503 O.2     
  27 O27           14.0500    -7.6711    -1.7351 O.2     
  28 C28           13.0236    -9.8225    -2.9339 C.3     
  29 H29           -1.1980     2.1829    -1.9986 H       
  30 H30            0.3898     3.0934    -0.3157 H       
  31 H31           -0.4409     0.4312    -3.5489 H       
  32 H32            2.7015     2.1910    -0.2493 H       
  33 H33            3.1532    -1.5604    -2.6718 H       
  34 H34            3.5781    -0.3029    -3.8583 H       
  35 H35            5.3941    -1.9915    -3.6179 H       
  36 H36            5.9311    -0.3721    -3.1091 H       
  37 H37            5.6642    -1.1197     0.4665 H       
  38 H38            6.0891     0.1378    -0.7200 H       
  39 H39            3.8482     0.5689     0.2261 H       
  40 H40            3.3111    -1.0504    -0.2827 H       
  41 H41            7.6641    -1.5215    -1.8723 H       
  42 H42            7.2230    -2.5609    -0.4962 H       
  43 H43            6.7098    -3.2416    -3.4262 H       
  44 H44            9.1400    -3.2033    -2.7899 H       
  45 H45            8.7824    -4.3642    -1.4888 H       
  46 H46            6.4295    -4.8237    -1.0080 H       
  47 H47            9.1118    -7.0745    -5.0332 H       
  48 H48           11.3272    -8.1012    -5.3415 H       
  49 H49           12.9783    -5.3937    -2.4734 H       
  50 H50           10.7629    -4.3651    -2.1713 H       
  51 H51           14.0684    -7.2057    -4.9004 H       
  52 H52           13.0789   -10.3404    -3.8914 H       
  53 H53           13.3016   -10.5080    -2.1334 H       
  54 H54           12.0059    -9.4675    -2.7712 H       
@<TRIPOS>BOND
   1    1    2 ar
   2    1    3 ar
   3    1   29 1
   4    2    6 ar
   5    2   30 1
   6    3    4 ar
   7    3   31 1
   8    4    5 ar
   9    5    6 ar
  10    5    7 1
  11    6   32 1
  12    7    8 1
  13    7   12 1
  14    8    9 1
  15    8   33 1
  16    8   34 1
  17    9   10 1
  18    9   35 1
  19    9   36 1
  20   10   11 1
  21   10   13 1
  22   11   12 1
  23   11   37 1
  24   11   38 1
  25   12   39 1
  26   12   40 1
  27   13   14 1
  28   13   41 1
  29   13   42 1
  30   14   16 1
  31   14   15 1
  32   14   43 1
  33   15   17 1
  34   15   44 1
  35   15   45 1
  36   16   46 1
  37   17   18 1
  38   18   19 ar
  39   18   23 ar
  40   19   20 ar
  41   19   47 1
  42   20   21 ar
  43   20   48 1
  44   21   22 ar
  45   21   24 1
  46   22   23 ar
  47   22   49 1
  48   23   50 1
  49   24   25 am
  50   24   51 1
  51   25   26 2
  52   25   27 2
  53   25   28 1
  54   28   52 1
  55   28   53 1
  56   28   54 1

#	End of record

