#	Name: ASD03091039
#	Creating user name:	WinNT
#	Creation time:	15. 06. 2019 20:29

#	Modifying user name:	WinNT
#	Modification time:	15. 06. 2019 20:29

#	Program:	/corina/corina34_cracker 3.40 0067  02.08.2006

@<TRIPOS>MOLECULE
ASD03091039
  28   29    0    0    0
SMALL
NO_CHARGES


@<TRIPOS>ATOM
   1 C1             0.4278     1.4331    -0.2709 C.2     
   2 C2             0.2183    -0.0241    -0.1343 C.ar    
   3 C3             0.7087    -0.7007     0.9839 C.ar    
   4 C4             0.5107    -2.0603     1.1065 C.ar    
   5 C5            -0.1726    -2.7549     0.1244 C.ar    
   6 C6            -0.6625    -2.0905    -0.9884 C.ar    
   7 C7            -0.4753    -0.7274    -1.1197 C.ar    
   8 O8             1.5543     1.8893    -0.2552 O.2     
   9 N9            -0.6301     2.2551    -0.4185 N.am    
  10 N10            1.4406     0.0396     2.0361 N.pl3   
  11 O11            1.9806    -0.5670     2.9439 O.2     
  12 O12            1.5028     1.2553     1.9942 O.2     
  13 F13           -1.3288    -2.7751    -1.9436 F       
  14 C14           -0.4226     3.6990    -0.5539 C.3     
  15 C15           -1.5617     4.4182    -1.2954 C.3     
  16 C16           -1.4066     5.5537    -0.2700 C.3     
  17 C17           -0.8340     4.5000     0.6927 C.3     
  18 H18            0.8903    -2.5840     1.9714 H       
  19 H19           -0.3246    -3.8194     0.2254 H       
  20 H20           -0.8610    -0.2089    -1.9850 H       
  21 H21           -1.5289     1.8907    -0.4350 H       
  22 H22            0.5696     3.9507    -0.9284 H       
  23 H23           -1.3038     4.7108    -2.3133 H       
  24 H24           -2.5189     3.9007    -1.2324 H       
  25 H25           -0.6834     6.3136    -0.5660 H       
  26 H26           -2.3555     5.9767     0.0599 H       
  27 H27           -1.5923     4.0049     1.2992 H       
  28 H28            0.0114     4.8587     1.2799 H       
@<TRIPOS>BOND
   1    1    2 1
   2    1    8 2
   3    1    9 am
   4    2    3 ar
   5    2    7 ar
   6    3    4 ar
   7    3   10 1
   8    4    5 ar
   9    4   18 1
  10    5    6 ar
  11    5   19 1
  12    6    7 ar
  13    6   13 1
  14    7   20 1
  15    9   14 1
  16    9   21 1
  17   10   11 2
  18   10   12 2
  19   14   15 1
  20   14   17 1
  21   14   22 1
  22   15   16 1
  23   15   23 1
  24   15   24 1
  25   16   17 1
  26   16   25 1
  27   16   26 1
  28   17   27 1
  29   17   28 1

#	End of record

