#	Name: ASD03731787
#	Creating user name:	WinNT
#	Creation time:	15. 06. 2019 20:46

#	Modifying user name:	WinNT
#	Modification time:	15. 06. 2019 20:46

#	Program:	/corina/corina34_cracker 3.40 0067  02.08.2006

@<TRIPOS>MOLECULE
ASD03731787
  36   37    0    0    0
SMALL
NO_CHARGES


@<TRIPOS>ATOM
   1 C1             0.3751     1.0937     1.9778 C.2     
   2 C2             0.2917    -0.2827     1.4512 C.ar    
   3 C3             1.3745    -0.8360     0.7621 C.ar    
   4 C4             1.2926    -2.1210     0.2722 C.ar    
   5 C5             0.1336    -2.8670     0.4625 C.ar    
   6 C6            -0.9445    -2.3196     1.1472 C.ar    
   7 C7            -0.8677    -1.0377     1.6453 C.ar    
   8 O8             1.3867     1.7476     1.8123 O.2     
   9 N9            -0.6721     1.6275     2.6372 N.am    
  10 S10           -0.5786     3.1717     3.2279 S.o2    
  11 O11           -1.8296     3.3779     3.8694 O.2     
  12 O12            0.6354     3.1915     3.9663 O.2     
  13 C13           -0.4416     4.2143     1.7498 C.3     
  14 O14            0.0558    -4.1323    -0.0222 O.3     
  15 C15           -1.1301    -4.7863     0.0893 C.ar    
  16 C16           -2.0845    -4.6706    -0.9115 C.ar    
  17 C17           -3.2890    -5.3363    -0.7958 C.ar    
  18 C18           -3.5445    -6.1178     0.3163 C.ar    
  19 C19           -2.5956    -6.2344     1.3149 C.ar    
  20 C20           -1.3866    -5.5755     1.2011 C.ar    
  21 C21           -4.3261    -5.2107    -1.8819 C.3     
  22 Cl22           2.6365    -2.8100    -0.5840 Cl      
  23 H23            2.2740    -0.2569     0.6136 H       
  24 H24           -1.8425    -2.9017     1.2930 H       
  25 H25           -1.7045    -0.6150     2.1815 H       
  26 H26           -1.4806     1.1072     2.7657 H       
  27 H27           -1.3210     4.0715     1.1217 H       
  28 H28           -0.3742     5.2605     2.0481 H       
  29 H29            0.4526     3.9374     1.1914 H       
  30 H30           -1.8856    -4.0601    -1.7800 H       
  31 H31           -4.4870    -6.6376     0.4049 H       
  32 H32           -2.7978    -6.8447     2.1827 H       
  33 H33           -0.6438    -5.6708     1.9793 H       
  34 H34           -4.1722    -5.9945    -2.6236 H       
  35 H35           -5.3208    -5.3114    -1.4479 H       
  36 H36           -4.2352    -4.2353    -2.3600 H       
@<TRIPOS>BOND
   1    1    2 1
   2    1    8 2
   3    1    9 am
   4    2    3 ar
   5    2    7 ar
   6    3    4 ar
   7    3   23 1
   8    4    5 ar
   9    4   22 1
  10    5    6 ar
  11    5   14 1
  12    6    7 ar
  13    6   24 1
  14    7   25 1
  15    9   10 am
  16    9   26 1
  17   10   11 2
  18   10   12 2
  19   10   13 1
  20   13   27 1
  21   13   28 1
  22   13   29 1
  23   14   15 1
  24   15   16 ar
  25   15   20 ar
  26   16   17 ar
  27   16   30 1
  28   17   18 ar
  29   17   21 1
  30   18   19 ar
  31   18   31 1
  32   19   20 ar
  33   19   32 1
  34   20   33 1
  35   21   34 1
  36   21   35 1
  37   21   36 1

#	End of record

