#	Name: ASD03740142
#	Creating user name:	WinNT
#	Creation time:	15. 06. 2019 20:46

#	Modifying user name:	WinNT
#	Modification time:	15. 06. 2019 20:46

#	Program:	/corina/corina34_cracker 3.40 0067  02.08.2006

@<TRIPOS>MOLECULE
ASD03740142
  56   59    0    0    0
SMALL
NO_CHARGES


@<TRIPOS>ATOM
   1 C1             0.0433     1.3155    -0.6639 C.ar    
   2 C2             0.0716    -0.0728    -0.6235 C.ar    
   3 C3             1.2536    -0.7449    -0.4897 C.ar    
   4 C4             2.4476    -0.0347    -0.3925 C.ar    
   5 C5             2.4204     1.3727    -0.4338 C.ar    
   6 C6             1.1983     2.0376    -0.5709 C.ar    
   7 N7             3.7609    -0.4014    -0.2542 N.pl3   
   8 N8             4.5563     0.7481    -0.2081 N.2     
   9 C9             3.8096     1.8137    -0.3103 C.2     
  10 O10            4.2446     3.1015    -0.3035 O.3     
  11 C11            4.2533    -1.7785    -0.1676 C.3     
  12 C12            4.5599    -2.2903    -1.5514 C.ar    
  13 C13            5.8222    -2.1178    -2.0880 C.ar    
  14 C14            6.1040    -2.5870    -3.3571 C.ar    
  15 C15            5.1225    -3.2294    -4.0906 C.ar    
  16 C16            3.8594    -3.4018    -3.5531 C.ar    
  17 C17            3.5804    -2.9372    -2.2816 C.ar    
  18 C18            5.6521     3.3101    -0.1717 C.3     
  19 C19            5.9486     4.8111    -0.1845 C.3     
  20 C20            7.4556     5.0345    -0.0433 C.3     
  21 N21            7.7511     6.4687    -0.1601 N.3     
  22 C22            7.0589     7.2388     0.8923 C.3     
  23 Cl23           5.4756    -3.8185    -5.6850 Cl      
  24 C24            7.5243     6.9225    -1.4625 C.3     
  25 C25            8.0402     8.3640    -1.6647 C.3     
  26 C26            7.0611     9.3280    -1.0444 C.3     
  27 C27            7.4226     9.6856     0.4110 C.3     
  28 C28            7.8930     8.4556     1.2060 C.3     
  29 H29           -0.9007     1.8282    -0.7744 H       
  30 H30           -0.8519    -0.6276    -0.6985 H       
  31 H31            1.2619    -1.8245    -0.4588 H       
  32 H32            1.1680     3.1167    -0.6038 H       
  33 H33            5.1593    -1.8030     0.4379 H       
  34 H34            3.4918    -2.4083     0.2923 H       
  35 H35            6.5882    -1.6159    -1.5155 H       
  36 H36            7.0901    -2.4518    -3.7763 H       
  37 H37            3.0928    -3.9033    -4.1252 H       
  38 H38            2.5944    -3.0717    -1.8619 H       
  39 H39            5.9967     2.8797     0.7685 H       
  40 H40            6.1699     2.8305    -1.0023 H       
  41 H41            5.6039     5.2416    -1.1247 H       
  42 H42            5.4308     5.2908     0.6462 H       
  43 H43            7.7868     4.6733     0.9303 H       
  44 H44            7.9787     4.4905    -0.8298 H       
  45 H45            6.0761     7.5478     0.5364 H       
  46 H46            6.9512     6.6255     1.7869 H       
  47 H47            8.0343     6.2611    -2.1630 H       
  48 H48            6.4539     6.8963    -1.6666 H       
  49 H49            9.0131     8.4737    -1.1857 H       
  50 H50            8.1315     8.5724    -2.7307 H       
  51 H51            7.0429    10.2422    -1.6377 H       
  52 H52            6.0675     8.8801    -1.0607 H       
  53 H53            8.2188    10.4301     0.4058 H       
  54 H54            6.5458    10.1098     0.9001 H       
  55 H55            7.8201     8.6717     2.2718 H       
  56 H56            8.9335     8.2475     0.9568 H       
@<TRIPOS>BOND
   1    1    2 ar
   2    1    6 ar
   3    1   29 1
   4    2    3 ar
   5    2   30 1
   6    3    4 ar
   7    3   31 1
   8    4    5 ar
   9    4    7 1
  10    5    6 ar
  11    5    9 1
  12    6   32 1
  13    7    8 1
  14    7   11 1
  15    8    9 2
  16    9   10 1
  17   10   18 1
  18   11   12 1
  19   11   33 1
  20   11   34 1
  21   12   13 ar
  22   12   17 ar
  23   13   14 ar
  24   13   35 1
  25   14   15 ar
  26   14   36 1
  27   15   16 ar
  28   15   23 1
  29   16   17 ar
  30   16   37 1
  31   17   38 1
  32   18   19 1
  33   18   39 1
  34   18   40 1
  35   19   20 1
  36   19   41 1
  37   19   42 1
  38   20   21 1
  39   20   43 1
  40   20   44 1
  41   21   24 1
  42   21   22 1
  43   22   28 1
  44   22   45 1
  45   22   46 1
  46   24   25 1
  47   24   47 1
  48   24   48 1
  49   25   26 1
  50   25   49 1
  51   25   50 1
  52   26   27 1
  53   26   51 1
  54   26   52 1
  55   27   28 1
  56   27   53 1
  57   27   54 1
  58   28   55 1
  59   28   56 1

#	End of record

