#	Name: ASD01918137
#	Creating user name:	WinNT
#	Creation time:	15. 06. 2019 20:10

#	Modifying user name:	WinNT
#	Modification time:	15. 06. 2019 20:10

#	Program:	/corina/corina34_cracker 3.40 0067  02.08.2006

@<TRIPOS>MOLECULE
ASD01918137
  37   40    0    0    0
SMALL
NO_CHARGES


@<TRIPOS>ATOM
   1 N1             4.8224    -0.4074    -2.1412 N.ar    
   2 C2             5.2895     0.2905    -3.1592 C.ar    
   3 C3             5.1754     1.6735    -3.1845 C.ar    
   4 C4             4.5618     2.3200    -2.1230 C.ar    
   5 C5             4.0816     1.5500    -1.0675 C.ar    
   6 C6             4.2325     0.1728    -1.1136 C.ar    
   7 O7             3.4732     2.1408    -0.0052 O.3     
   8 C8             3.4528     3.4998     0.0444 C.2     
   9 N9             2.2005     5.5116    -0.0206 N.pl3   
  10 C10            2.2695     4.1558    -0.0650 C.2     
  11 C11            4.6520     4.2023     0.2133 C.2     
  12 C12            4.6230     5.5916     0.2635 C.2     
  13 C13            3.3300     6.2636     0.1365 C.2     
  14 C14            5.8626     6.3667     0.4405 C.2     
  15 N15            5.8148     7.7128     0.4868 N.am    
  16 O16            6.9295     5.7921     0.5449 O.2     
  17 N17            1.1369     6.4218    -0.1063 N.2     
  18 C18            1.6508     7.6251    -0.0096 C.2     
  19 N19            2.9660     7.5362     0.1425 N.2     
  20 C20            6.9710     8.4424     0.7597 C.ar    
  21 N21            8.1319     7.8153     0.8650 N.ar    
  22 C22            6.8941     9.8218     0.9128 C.ar    
  23 C23            8.0489    10.5350     1.1830 C.ar    
  24 C24            9.2472     9.8395     1.2913 C.ar    
  25 C25            9.2499     8.4667     1.1217 C.ar    
  26 F26            5.8864    -0.3489    -4.1888 F       
  27 F27            5.6568     2.3806    -4.2302 F       
  28 F28           10.3976    10.4975     1.5537 F       
  29 H29            4.4590     3.3951    -2.1148 H       
  30 H30            3.8629    -0.4322    -0.2989 H       
  31 H31            1.3608     3.5859    -0.1908 H       
  32 H32            5.5882     3.6716     0.3039 H       
  33 H33            4.9759     8.1740     0.3302 H       
  34 H34            1.0884     8.5466    -0.0401 H       
  35 H35            5.9457    10.3304     0.8218 H       
  36 H36            8.0196    11.6075     1.3066 H       
  37 H37           10.1788     7.9214     1.2006 H       
@<TRIPOS>BOND
   1    1    2 ar
   2    1    6 ar
   3    2    3 ar
   4    2   26 1
   5    3    4 ar
   6    3   27 1
   7    4    5 ar
   8    4   29 1
   9    5    6 ar
  10    5    7 1
  11    6   30 1
  12    7    8 1
  13    8   11 1
  14    8   10 2
  15    9   10 1
  16    9   17 1
  17    9   13 1
  18   10   31 1
  19   11   12 2
  20   11   32 1
  21   12   13 1
  22   12   14 1
  23   13   19 2
  24   14   15 am
  25   14   16 2
  26   15   20 1
  27   15   33 1
  28   17   18 2
  29   18   19 1
  30   18   34 1
  31   20   22 ar
  32   20   21 ar
  33   21   25 ar
  34   22   23 ar
  35   22   35 1
  36   23   24 ar
  37   23   36 1
  38   24   25 ar
  39   24   28 1
  40   25   37 1

#	End of record

