#	Name: ASD04882490
#	Creating user name:	WinNT
#	Creation time:	15. 06. 2019 20:54

#	Modifying user name:	WinNT
#	Modification time:	15. 06. 2019 20:54

#	Program:	/corina/corina34_cracker 3.40 0067  02.08.2006

@<TRIPOS>MOLECULE
ASD04882490
  77   81    0    0    0
SMALL
NO_CHARGES


@<TRIPOS>ATOM
   1 C1            -0.9738     1.9550     0.9490 C.ar    
   2 C2            -0.9140     0.5588     0.9718 C.ar    
   3 C3            -2.0783    -0.1908     0.8491 C.ar    
   4 C4            -3.2945     0.4391     0.7052 C.ar    
   5 C5            -3.3616     1.8350     0.6821 C.ar    
   6 C6            -2.1930     2.5911     0.8100 C.ar    
   7 N7             0.3136    -0.0822     1.1171 N.3     
   8 C8             0.3306    -0.9200     2.3244 C.3     
   9 C9             0.6376    -0.8765    -0.0762 C.3     
  10 C10            2.0258    -1.4990     0.0900 C.3     
  11 N11            2.0428    -2.3368     1.2973 N.3     
  12 C12            1.7189    -1.5425     2.4906 C.3     
  13 C13           -4.6646     2.5095     0.5279 C.2     
  14 O14           -4.7219     3.7239     0.5079 O.2     
  15 N15           -5.7913     1.7796     0.4093 N.am    
  16 N16            0.2003     2.7092     1.0727 N.am    
  17 C17            3.2741    -2.9798     1.4430 C.ar    
  18 C18            0.1520     3.9504     1.5958 C.2     
  19 C19            1.3917     4.7015     1.8169 C.2     
  20 O20           -0.9207     4.4478     1.8845 O.2     
  21 C21            1.4851     5.9608     2.3368 C.2     
  22 C22            2.8508     6.2834     2.3701 C.2     
  23 C23            3.5227     5.2205     1.8753 C.2     
  24 O24            2.6404     4.2674     1.5478 O.3     
  25 C25            4.4387    -2.2330     1.5711 C.ar    
  26 C26            3.3365    -4.3671     1.4660 C.ar    
  27 C27            4.5558    -4.9998     1.6103 C.ar    
  28 C28            5.7134    -4.2536     1.7322 C.ar    
  29 C29            5.6543    -2.8719     1.7150 C.ar    
  30 C30            2.0751    -5.1812     1.3342 C.3     
  31 C31           -7.0852     2.4493     0.2563 C.3     
  32 C32           -8.1760     1.4154     0.1451 C.ar    
  33 C33           -8.8096     0.9553     1.2855 C.ar    
  34 C34           -9.8119     0.0057     1.1922 C.ar    
  35 C35          -10.1859    -0.4880    -0.0403 C.ar    
  36 C36           -9.5509    -0.0275    -1.1951 C.ar    
  37 C37           -8.5445     0.9341    -1.0944 C.ar    
  38 C38           -9.9463    -0.5526    -2.5194 C.2     
  39 N39          -10.1967    -1.8676    -2.6756 N.am    
  40 C40          -10.4823    -2.4057    -4.0079 C.3     
  41 C41          -10.1833    -2.7590    -1.5130 C.3     
  42 O42          -10.0456     0.2018    -3.4673 O.2     
  43 H43           -2.0289    -1.2695     0.8664 H       
  44 H44           -4.1972    -0.1461     0.6098 H       
  45 H45           -2.2417     3.6698     0.7928 H       
  46 H46            0.1003    -0.3070     3.1957 H       
  47 H47           -0.4134    -1.7108     2.2288 H       
  48 H48           -0.1030    -1.6667    -0.1991 H       
  49 H49            0.6310    -0.2316    -0.9550 H       
  50 H50            2.2561    -2.1120    -0.7813 H       
  51 H51            2.7699    -0.7082     0.1856 H       
  52 H52            2.4595    -0.7523     2.6135 H       
  53 H53            1.7255    -2.1874     3.3694 H       
  54 H54           -5.7456     0.8108     0.4253 H       
  55 H55            1.0480     2.3380     0.7820 H       
  56 H56            0.6667     6.5874     2.6593 H       
  57 H57            3.2833     7.2074     2.7245 H       
  58 H58            4.5947     5.1498     1.7655 H       
  59 H59            4.3932    -1.1541     1.5577 H       
  60 H60            4.6050    -6.0785     1.6282 H       
  61 H61            6.6655    -4.7508     1.8455 H       
  62 H62            6.5605    -2.2920     1.8104 H       
  63 H63            1.8854    -5.3892     0.2812 H       
  64 H64            2.1907    -6.1204     1.8751 H       
  65 H65            1.2370    -4.6227     1.7510 H       
  66 H66           -7.2716     3.0823     1.1239 H       
  67 H67           -7.0726     3.0625    -0.6448 H       
  68 H68           -8.5205     1.3385     2.2529 H       
  69 H69          -10.3021    -0.3500     2.0864 H       
  70 H70          -10.9680    -1.2293    -0.1117 H       
  71 H71           -8.0495     1.2947    -1.9840 H       
  72 H72           -9.5507    -2.7129    -4.4831 H       
  73 H73          -11.1452    -3.2663    -3.9177 H       
  74 H74          -10.9637    -1.6384    -4.6141 H       
  75 H75          -11.1771    -2.7887    -1.0664 H       
  76 H76           -9.8962    -3.7623    -1.8277 H       
  77 H77           -9.4664    -2.3891    -0.7799 H       
@<TRIPOS>BOND
   1    1    2 ar
   2    1   16 1
   3    1    6 ar
   4    2    3 ar
   5    2    7 1
   6    3    4 ar
   7    3   43 1
   8    4    5 ar
   9    4   44 1
  10    5    6 ar
  11    5   13 1
  12    6   45 1
  13    7    8 1
  14    7    9 1
  15    8   12 1
  16    8   46 1
  17    8   47 1
  18    9   10 1
  19    9   48 1
  20    9   49 1
  21   10   11 1
  22   10   50 1
  23   10   51 1
  24   11   12 1
  25   11   17 1
  26   12   52 1
  27   12   53 1
  28   13   14 2
  29   13   15 am
  30   15   31 1
  31   15   54 1
  32   16   18 am
  33   16   55 1
  34   17   26 ar
  35   17   25 ar
  36   18   19 1
  37   18   20 2
  38   19   21 2
  39   19   24 1
  40   21   22 1
  41   21   56 1
  42   22   23 2
  43   22   57 1
  44   23   24 1
  45   23   58 1
  46   25   29 ar
  47   25   59 1
  48   26   27 ar
  49   26   30 1
  50   27   28 ar
  51   27   60 1
  52   28   29 ar
  53   28   61 1
  54   29   62 1
  55   30   63 1
  56   30   64 1
  57   30   65 1
  58   31   32 1
  59   31   66 1
  60   31   67 1
  61   32   33 ar
  62   32   37 ar
  63   33   34 ar
  64   33   68 1
  65   34   35 ar
  66   34   69 1
  67   35   36 ar
  68   35   70 1
  69   36   37 ar
  70   36   38 1
  71   37   71 1
  72   38   39 am
  73   38   42 2
  74   39   40 1
  75   39   41 1
  76   40   72 1
  77   40   73 1
  78   40   74 1
  79   41   75 1
  80   41   76 1
  81   41   77 1

#	End of record

