#	Name: ASD02508099
#	Creating user name:	WinNT
#	Creation time:	15. 06. 2019 20:23

#	Modifying user name:	WinNT
#	Modification time:	15. 06. 2019 20:23

#	Program:	/corina/corina34_cracker 3.40 0067  02.08.2006

@<TRIPOS>MOLECULE
ASD02508099
  33   35    0    0    0
SMALL
NO_CHARGES


@<TRIPOS>ATOM
   1 C1            -0.0120     1.3902    -0.0067 C.ar    
   2 C2             0.0073     0.0096     0.1100 C.ar    
   3 C3             1.1824     2.0997    -0.1341 C.ar    
   4 C4             2.3893     1.4197    -0.1440 C.ar    
   5 C5             2.4043     0.0372    -0.0274 C.ar    
   6 C6             1.2121    -0.6657     0.1001 C.ar    
   7 N7            -1.0411     2.3347    -0.0353 N.am    
   8 C8            -0.4718     3.5491    -0.1675 C.2     
   9 O9             0.8622     3.4137    -0.2282 O.3     
  10 N10            3.6223    -0.6509    -0.0377 N.am    
  11 S11            4.9597     0.0224     0.6697 S.o2    
  12 C12            4.5820     0.2653     2.3735 C.ar    
  13 C13            4.8527    -0.7329     3.2906 C.ar    
  14 O14           -1.0738     4.6040    -0.2274 O.2     
  15 O15            5.9795    -0.9659     0.6217 O.2     
  16 O16            5.1048     1.3171     0.1023 O.2     
  17 C17            4.0201     1.4563     2.7939 C.ar    
  18 C18            3.7237     1.6469     4.1306 C.ar    
  19 C19            3.9889     0.6464     5.0468 C.ar    
  20 C20            4.5564    -0.5423     4.6273 C.ar    
  21 C21            1.2338    -2.1672     0.2266 C.3     
  22 H22           -0.9185    -0.5376     0.2088 H       
  23 H23            3.3166     1.9645    -0.2428 H       
  24 H24           -1.9913     2.1502     0.0280 H       
  25 H25            3.6835    -1.5224    -0.4593 H       
  26 H26            5.2955    -1.6618     2.9628 H       
  27 H27            3.8129     2.2380     2.0781 H       
  28 H28            3.2854     2.5777     4.4591 H       
  29 H29            3.7577     0.7954     6.0912 H       
  30 H30            4.7636    -1.3240     5.3431 H       
  31 H31            1.2972    -2.4423     1.2794 H       
  32 H32            0.3216    -2.5813    -0.2029 H       
  33 H33            2.0985    -2.5641    -0.3054 H       
@<TRIPOS>BOND
   1    1    2 ar
   2    1    3 ar
   3    1    7 1
   4    2    6 ar
   5    2   22 1
   6    3    4 ar
   7    3    9 1
   8    4    5 ar
   9    4   23 1
  10    5    6 ar
  11    5   10 1
  12    6   21 1
  13    7    8 am
  14    7   24 1
  15    8    9 1
  16    8   14 2
  17   10   11 am
  18   10   25 1
  19   11   12 1
  20   11   15 2
  21   11   16 2
  22   12   13 ar
  23   12   17 ar
  24   13   20 ar
  25   13   26 1
  26   17   18 ar
  27   17   27 1
  28   18   19 ar
  29   18   28 1
  30   19   20 ar
  31   19   29 1
  32   20   30 1
  33   21   31 1
  34   21   32 1
  35   21   33 1

#	End of record

