#	Name: ASD04880268
#	Creating user name:	WinNT
#	Creation time:	15. 06. 2019 20:53

#	Modifying user name:	WinNT
#	Modification time:	15. 06. 2019 20:53

#	Program:	/corina/corina34_cracker 3.40 0067  02.08.2006

@<TRIPOS>MOLECULE
ASD04880268
  39   42    0    0    0
SMALL
NO_CHARGES


@<TRIPOS>ATOM
   1 C1            -0.0144     1.2117     0.0087 C.2     
   2 O2             0.0438    -0.0026     0.0315 O.2     
   3 N3             1.1184     1.9397    -0.0483 N.am    
   4 N4             1.1858     3.3241    -0.1910 N.2     
   5 C5             2.3860     3.7925    -0.2192 C.2     
   6 C6             3.3747     2.6566    -0.0842 C.3     
   7 C7             2.4859     1.4029     0.0365 C.3     
   8 C8             1.7376     6.1668    -0.4765 C.ar    
   9 C9             2.7403     5.2163    -0.3611 C.ar    
  10 C10            4.0938     5.6010    -0.3780 C.ar    
  11 C11            4.4446     6.9057    -0.5076 C.ar    
  12 C12            3.4503     7.8938    -0.6272 C.ar    
  13 C13            3.7899     9.2502    -0.7627 C.ar    
  14 C14            2.8060    10.1842    -0.8770 C.ar    
  15 C15            1.4617     9.8167    -0.8619 C.ar    
  16 C16            1.0938     8.5130    -0.7319 C.ar    
  17 C17            2.0823     7.5194    -0.6117 C.ar    
  18 C18           -1.3276     1.8893     0.0373 C.ar    
  19 C19           -2.5036     1.1427    -0.0542 C.ar    
  20 C20           -3.7277     1.7827    -0.0263 C.ar    
  21 C21           -3.7881     3.1623     0.0923 C.ar    
  22 C22           -2.6255     3.9059     0.1827 C.ar    
  23 C23           -1.3971     3.2778     0.1618 C.ar    
  24 F24           -4.8674     1.0627    -0.1151 F       
  25 H25            4.0098     2.5954    -0.9680 H       
  26 H26            3.9793     2.7807     0.8143 H       
  27 H27            2.6452     0.9085     0.9948 H       
  28 H28            2.6802     0.7163    -0.7875 H       
  29 H29            0.6999     5.8676    -0.4673 H       
  30 H30            4.8631     4.8486    -0.2863 H       
  31 H31            5.4876     7.1855    -0.5185 H       
  32 H32            4.8271     9.5509    -0.7758 H       
  33 H33            3.0713    11.2260    -0.9807 H       
  34 H34            0.7009    10.5777    -0.9544 H       
  35 H35            0.0483     8.2426    -0.7210 H       
  36 H36           -2.4566     0.0677    -0.1469 H       
  37 H37           -4.7470     3.6587     0.1137 H       
  38 H38           -2.6793     4.9806     0.2746 H       
  39 H39           -0.4906     3.8601     0.2371 H       
@<TRIPOS>BOND
   1    1    2 2
   2    1    3 am
   3    1   18 1
   4    3    4 1
   5    3    7 1
   6    4    5 2
   7    5    6 1
   8    5    9 1
   9    6    7 1
  10    6   25 1
  11    6   26 1
  12    7   27 1
  13    7   28 1
  14    8    9 ar
  15    8   17 ar
  16    8   29 1
  17    9   10 ar
  18   10   11 ar
  19   10   30 1
  20   11   12 ar
  21   11   31 1
  22   12   13 ar
  23   12   17 ar
  24   13   14 ar
  25   13   32 1
  26   14   15 ar
  27   14   33 1
  28   15   16 ar
  29   15   34 1
  30   16   17 ar
  31   16   35 1
  32   18   19 ar
  33   18   23 ar
  34   19   20 ar
  35   19   36 1
  36   20   21 ar
  37   20   24 1
  38   21   22 ar
  39   21   37 1
  40   22   23 ar
  41   22   38 1
  42   23   39 1

#	End of record

