#	Name: ASD01020004
#	Creating user name:	WinNT
#	Creation time:	15. 06. 2019 18:56

#	Modifying user name:	WinNT
#	Modification time:	15. 06. 2019 18:56

#	Program:	/corina/corina34_cracker 3.40 0067  02.08.2006

@<TRIPOS>MOLECULE
ASD01020004
 155  154    0    0    0
SMALL
NO_CHARGES


@<TRIPOS>ATOM
   1 F1            -1.0184    -2.1471     0.0003 F       
   2 F2            -2.0416    -0.4412    -1.1232 F       
   3 F3            -2.0198    -0.4534     1.1613 F       
   4 O4            -0.0161     1.3381     0.0094 O.3     
   5 O5             1.0565    -0.5939    -0.0112 O.2     
   6 C6            -1.2926    -0.7753     0.0102 C.3     
   7 C7             0.0021    -0.0041     0.0020 C.2     
   8 H8             0.8394     1.7888     0.0037 H       
   9 O9            12.0827    13.2258     9.4912 O.2     
  10 O10           15.5049    15.4541    11.8826 O.2     
  11 O11           13.4202     8.8020     9.6211 O.2     
  12 O12           13.7940    19.4432    12.5511 O.2     
  13 O13           18.1987    29.2822    15.4035 O.2     
  14 O14           15.7748    25.4361    16.2450 O.2     
  15 O15           17.3099    22.3904    13.1236 O.2     
  16 O16           17.0370    16.3766    10.3645 O.2     
  17 O17           20.2068    32.6066    17.1973 O.3     
  18 O18           20.1257    30.4899    17.8272 O.2     
  19 O19            6.9207     7.5526     7.5636 O.3     
  20 O20           17.1867    24.9266     9.3268 O.3     
  21 O21            7.7914     8.5422     9.3373 O.2     
  22 O22           16.5418    26.6460    10.5562 O.2     
  23 N23           13.8259    13.7213    10.7709 N.am    
  24 N24           12.7287    10.7653     8.8533 N.am    
  25 N25           14.4789    17.3001    11.2032 N.am    
  26 N26           15.8181    20.2374    12.9915 N.am    
  27 N27           17.4288    26.7865    15.6429 N.am    
  28 N28           15.9455    23.6860    14.2991 N.am    
  29 N29           17.5815    30.0284    17.3995 N.am    
  30 N30           12.1821     7.2888     7.8208 N.3     
  31 N31           17.7939    17.6627     8.7229 N.am    
  32 N32           18.2074    23.3296    21.1887 N.3     
  33 C33           13.3717    15.1044    10.9354 C.3     
  34 C34           12.2674    15.1562    11.9930 C.3     
  35 C35           13.6585    11.4849     9.7274 C.3     
  36 C36           15.0272    11.5775     9.0500 C.3     
  37 C37           11.7040    16.5764    12.0730 C.3     
  38 C38           13.1316    12.8727     9.9873 C.2     
  39 C39           14.8900    12.3276     7.7235 C.3     
  40 C40           14.5288    15.9642    11.3747 C.2     
  41 C41           12.8448    14.7593    13.3531 C.3     
  42 C42           15.5621    10.1686     8.7862 C.3     
  43 C43           15.5697    18.1434    11.6984 C.3     
  44 C44           10.9726    16.9090    10.7709 C.3     
  45 C45           16.2753    12.5296     7.1062 C.3     
  46 C46           12.6875     9.4183     8.8766 C.2     
  47 C47           17.1928    27.6619    16.7936 C.3     
  48 C48           11.7311     8.6781     7.9775 C.3     
  49 C49           15.2602    21.3818    13.7162 C.3     
  50 C50           17.9368    27.1133    18.0128 C.3     
  51 C51           16.4031    18.6448    10.5173 C.3     
  52 C52           14.9958    19.3207    12.4439 C.2     
  53 C53           16.9038    24.7938    14.2747 C.3     
  54 C54           17.3429    25.7591    18.4059 C.3     
  55 C55           18.0687    31.3762    17.0959 C.3     
  56 C56           10.3326     8.6935     8.5977 C.3     
  57 C57           17.3139    32.3961    17.9508 C.3     
  58 C58           15.8418    32.4205    17.5346 C.3     
  59 C59           17.6940    29.0483    16.4813 C.2     
  60 C60           14.9814    20.9806    15.1661 C.3     
  61 C61           16.7272    25.5924    12.9816 C.3     
  62 C62           16.6610    25.6943    15.4584 C.2     
  63 C63           16.2460    22.5214    13.6911 C.2     
  64 C64           18.0869    25.2105    19.6251 C.3     
  65 C65            9.3377     8.0519     7.6284 C.3     
  66 C66           17.1002    17.4794     9.8638 C.2     
  67 C67           17.0946    24.7129    11.7848 C.3     
  68 C68           13.9055    19.9259    15.1975 C.ar    
  69 C69           15.0579    33.3272    18.4856 C.3     
  70 C70           15.7244    32.9565    16.1064 C.3     
  71 C71           17.4931    23.8563    20.0181 C.3     
  72 C72           19.5424    31.4581    17.4004 C.2     
  73 C73           14.2472    18.5878    15.1360 C.ar    
  74 C74           12.5771    20.2963    15.2933 C.ar    
  75 C75            7.9602     8.0670     8.2393 C.2     
  76 C76           16.9207    25.4995    10.5112 C.2     
  77 C77           13.2602    17.6204    15.1647 C.ar    
  78 C78           11.5902    19.3288    15.3221 C.ar    
  79 C79           11.9316    17.9910    15.2553 C.ar    
  80 H80           21.1508    32.6106    17.4072 H       
  81 H81            6.0565     7.5850     7.9963 H       
  82 H82           17.0603    25.4708     8.5376 H       
  83 H83           14.6264    13.4163    11.2260 H       
  84 H84           12.1428    11.2582     8.2579 H       
  85 H85           13.7207    17.7031    10.7520 H       
  86 H86           16.7793    20.1394    12.9058 H       
  87 H87           18.1376    26.9930    15.0137 H       
  88 H88           15.0946    23.7907    14.7530 H       
  89 H89           17.1778    29.8414    18.2615 H       
  90 H90           12.2183     6.8177     8.7124 H       
  91 H91           11.5938     6.7888     7.1713 H       
  92 H92           18.2426    16.9126     8.3023 H       
  93 H93           17.8444    18.5447     8.3224 H       
  94 H94           18.1821    23.9870    21.9537 H       
  95 H95           17.8335    22.4351    21.4681 H       
  96 H96           12.9837    15.4746     9.9865 H       
  97 H97           11.4706    14.4640    11.7206 H       
  98 H98           13.7562    10.9505    10.6724 H       
  99 H99           15.7189    12.1129     9.7003 H       
 100 H100          11.0074    16.6444    12.9085 H       
 101 H101          12.5203    17.2832    12.2219 H       
 102 H102          14.2690    11.7478     7.0408 H       
 103 H103          14.4264    13.2980     7.9011 H       
 104 H104          13.6029    15.4835    13.6513 H       
 105 H105          12.0469    14.7420    14.0955 H       
 106 H106          13.2960    13.7696    13.2815 H       
 107 H107          14.8703     9.6332     8.1359 H       
 108 H108          16.5372    10.2346     8.3036 H       
 109 H109          15.6598     9.6342     9.7311 H       
 110 H110          16.2026    17.5622    12.3690 H       
 111 H111          10.4891    17.8814    10.8639 H       
 112 H112          11.6881    16.9361     9.9490 H       
 113 H113          10.2197    16.1463    10.5721 H       
 114 H114          16.1776    13.0640     6.1613 H       
 115 H115          16.8963    13.1095     7.7890 H       
 116 H116          16.7389    11.5592     6.9286 H       
 117 H117          16.1246    27.7012    17.0072 H       
 118 H118          11.7011     9.1626     7.0015 H       
 119 H119          14.3307    21.6949    13.2407 H       
 120 H120          18.9921    26.9904    17.7695 H       
 121 H121          17.8345    27.8101    18.8447 H       
 122 H122          15.7503    19.1307     9.7922 H       
 123 H123          17.1455    19.3589    10.8736 H       
 124 H124          17.9182    24.3977    14.3214 H       
 125 H125          16.2876    25.8820    18.6492 H       
 126 H126          17.4452    25.0623    17.5740 H       
 127 H127          17.9031    31.5932    16.0406 H       
 128 H128          10.3432     8.1320     9.5319 H       
 129 H129          10.0343     9.7230     8.7959 H       
 130 H130          17.3897    32.1164    19.0016 H       
 131 H131          17.7489    33.3849    17.8056 H       
 132 H132          15.4351    31.4102    17.5781 H       
 133 H133          15.8921    20.5840    15.6149 H       
 134 H134          14.6503    21.8542    15.7276 H       
 135 H135          15.6895    25.9134    12.8917 H       
 136 H136          17.3775    26.4669    13.0031 H       
 137 H137          19.1423    25.0876    19.3817 H       
 138 H138          17.9846    25.9073    20.4570 H       
 139 H139           9.3271     8.6133     6.6942 H       
 140 H140           9.6360     7.0224     7.4302 H       
 141 H141          18.1323    24.3919    11.8747 H       
 142 H142          16.4443    23.8384    11.7634 H       
 143 H143          15.4063    34.3544    18.3781 H       
 144 H144          13.9963    33.2764    18.2435 H       
 145 H145          15.2125    32.9967    19.5127 H       
 146 H146          16.2829    32.3106    15.4289 H       
 147 H147          14.6757    32.9739    15.8098 H       
 148 H148          16.1311    33.9669    16.0629 H       
 149 H149          17.5953    23.1595    19.1862 H       
 150 H150          16.4377    23.9793    20.2615 H       
 151 H151          15.2853    18.2983    15.0653 H       
 152 H152          12.3104    21.3415    15.3461 H       
 153 H153          13.5272    16.5750    15.1160 H       
 154 H154          10.5524    19.6182    15.3973 H       
 155 H155          11.1605    17.2351    15.2774 H       
@<TRIPOS>BOND
   1    1    6 1
   2    2    6 1
   3    3    6 1
   4    4    7 1
   5    4    8 1
   6    5    7 2
   7    6    7 1
   8    9   38 2
   9   10   40 2
  10   11   46 2
  11   12   52 2
  12   13   59 2
  13   14   62 2
  14   15   63 2
  15   16   66 2
  16   17   72 1
  17   17   80 1
  18   18   72 2
  19   19   75 1
  20   19   81 1
  21   20   76 1
  22   20   82 1
  23   21   75 2
  24   22   76 2
  25   23   38 am
  26   23   33 1
  27   23   83 1
  28   24   46 am
  29   24   35 1
  30   24   84 1
  31   25   40 am
  32   25   43 1
  33   25   85 1
  34   26   52 am
  35   26   49 1
  36   26   86 1
  37   27   62 am
  38   27   47 1
  39   27   87 1
  40   28   63 am
  41   28   53 1
  42   28   88 1
  43   29   59 am
  44   29   55 1
  45   29   89 1
  46   30   48 1
  47   30   90 1
  48   30   91 1
  49   31   66 am
  50   31   92 1
  51   31   93 1
  52   32   71 1
  53   32   94 1
  54   32   95 1
  55   33   34 1
  56   33   40 1
  57   33   96 1
  58   34   37 1
  59   34   41 1
  60   34   97 1
  61   35   36 1
  62   35   38 1
  63   35   98 1
  64   36   39 1
  65   36   42 1
  66   36   99 1
  67   37   44 1
  68   37  100 1
  69   37  101 1
  70   39   45 1
  71   39  102 1
  72   39  103 1
  73   41  104 1
  74   41  105 1
  75   41  106 1
  76   42  107 1
  77   42  108 1
  78   42  109 1
  79   43   51 1
  80   43   52 1
  81   43  110 1
  82   44  111 1
  83   44  112 1
  84   44  113 1
  85   45  114 1
  86   45  115 1
  87   45  116 1
  88   46   48 1
  89   47   50 1
  90   47   59 1
  91   47  117 1
  92   48   56 1
  93   48  118 1
  94   49   60 1
  95   49   63 1
  96   49  119 1
  97   50   54 1
  98   50  120 1
  99   50  121 1
 100   51   66 1
 101   51  122 1
 102   51  123 1
 103   53   61 1
 104   53   62 1
 105   53  124 1
 106   54   64 1
 107   54  125 1
 108   54  126 1
 109   55   57 1
 110   55   72 1
 111   55  127 1
 112   56   65 1
 113   56  128 1
 114   56  129 1
 115   57   58 1
 116   57  130 1
 117   57  131 1
 118   58   69 1
 119   58   70 1
 120   58  132 1
 121   60   68 1
 122   60  133 1
 123   60  134 1
 124   61   67 1
 125   61  135 1
 126   61  136 1
 127   64   71 1
 128   64  137 1
 129   64  138 1
 130   65   75 1
 131   65  139 1
 132   65  140 1
 133   67   76 1
 134   67  141 1
 135   67  142 1
 136   68   73 ar
 137   68   74 ar
 138   69  143 1
 139   69  144 1
 140   69  145 1
 141   70  146 1
 142   70  147 1
 143   70  148 1
 144   71  149 1
 145   71  150 1
 146   73   77 ar
 147   73  151 1
 148   74   78 ar
 149   74  152 1
 150   77   79 ar
 151   77  153 1
 152   78   79 ar
 153   78  154 1
 154   79  155 1

#	End of record

