#	Name: ASD05473022
#	Creating user name:	WinNT
#	Creation time:	15. 06. 2019 21:00

#	Modifying user name:	WinNT
#	Modification time:	15. 06. 2019 21:00

#	Program:	/corina/corina34_cracker 3.40 0067  02.08.2006

@<TRIPOS>MOLECULE
ASD05473022
  37   39    0    0    0
SMALL
NO_CHARGES


@<TRIPOS>ATOM
   1 C1            -0.8732    -0.2146    -1.0691 C.2     
   2 C2            -0.0741     0.1304     0.1611 C.3     
   3 C3             1.2848    -0.5701     0.0996 C.3     
   4 C4             2.1534    -0.1015     1.2687 C.3     
   5 O5            -0.3671    -0.8588    -1.9572 O.2     
   6 O6            -2.1489     0.1891    -1.1758 O.3     
   7 C7             2.4657     1.3639     1.1068 C.2     
   8 N8             2.1992     2.3242     2.0326 N.pl3   
   9 C9             2.6325     3.5280     1.5122 C.ar    
  10 C10            3.1631     3.2334     0.2449 C.ar    
  11 N11            3.0343     1.8939     0.0635 N.2     
  12 C12            3.6882     4.2649    -0.5379 C.ar    
  13 C13            3.6805     5.5569    -0.0607 C.ar    
  14 C14            3.1553     5.8421     1.1926 C.ar    
  15 C15            2.6328     4.8358     1.9766 C.ar    
  16 C16            1.0857    -2.0613     0.1878 C.ar    
  17 C17            1.5131    -2.8778    -0.8429 C.ar    
  18 C18            1.3308    -4.2456    -0.7627 C.ar    
  19 C19            0.7210    -4.7980     0.3481 C.ar    
  20 C20            0.2931    -3.9815     1.3796 C.ar    
  21 C21            0.4810    -2.6128     1.3013 C.ar    
  22 Cl22           4.3329     6.8383    -1.0334 Cl      
  23 Cl23          -0.4732    -4.6745     2.7747 Cl      
  24 H24            0.0750     1.2092     0.2069 H       
  25 H25           -0.6132    -0.1999     1.0490 H       
  26 H26            1.7780    -0.3244    -0.8408 H       
  27 H27            1.6176    -0.2576     2.2049 H       
  28 H28            3.0824    -0.6716     1.2824 H       
  29 H29           -2.6209    -0.0562    -1.9833 H       
  30 H30            1.7820     2.1887     2.8978 H       
  31 H31            4.0988     4.0498    -1.5133 H       
  32 H32            3.1556     6.8594     1.5554 H       
  33 H33            2.2253     5.0644     2.9503 H       
  34 H34            1.9893    -2.4467    -1.7111 H       
  35 H35            1.6646    -4.8828    -1.5682 H       
  36 H36            0.5783    -5.8667     0.4105 H       
  37 H37            0.1511    -1.9753     2.1082 H       
@<TRIPOS>BOND
   1    1    2 1
   2    1    5 2
   3    1    6 1
   4    2    3 1
   5    2   24 1
   6    2   25 1
   7    3    4 1
   8    3   16 1
   9    3   26 1
  10    4    7 1
  11    4   27 1
  12    4   28 1
  13    6   29 1
  14    7    8 1
  15    7   11 2
  16    8    9 1
  17    8   30 1
  18    9   10 ar
  19    9   15 ar
  20   10   11 1
  21   10   12 ar
  22   12   13 ar
  23   12   31 1
  24   13   14 ar
  25   13   22 1
  26   14   15 ar
  27   14   32 1
  28   15   33 1
  29   16   17 ar
  30   16   21 ar
  31   17   18 ar
  32   17   34 1
  33   18   19 ar
  34   18   35 1
  35   19   20 ar
  36   19   36 1
  37   20   21 ar
  38   20   23 1
  39   21   37 1

#	End of record

