#	Name: ASD02198258
#	Creating user name:	WinNT
#	Creation time:	15. 06. 2019 20:19

#	Modifying user name:	WinNT
#	Modification time:	15. 06. 2019 20:19

#	Program:	/corina/corina34_cracker 3.40 0067  02.08.2006

@<TRIPOS>MOLECULE
ASD02198258
  49   51    0    0    0
SMALL
NO_CHARGES


@<TRIPOS>ATOM
   1 C1            -0.0166     1.3759     0.0096 C.2     
   2 C2             0.0021    -0.0041     0.0020 C.2     
   3 C3            -1.2154    -0.8198     0.0093 C.2     
   4 S4             1.5676     2.0058    -0.0021 S.3     
   5 C5             2.2774     0.3995    -0.0175 C.2     
   6 C6             1.2835    -0.5516    -0.0132 C.2     
   7 C7             3.6585     0.1258    -0.0322 C.2     
   8 C8             4.6310     1.2363    -0.0350 C.2     
   9 O9             4.0514    -1.0290    -0.0426 O.2     
  10 N10            1.5311    -1.9139    -0.0224 N.pl3   
  11 N11           -1.1583     2.1393     0.0194 N.pl3   
  12 C12           -1.0619     3.6011     0.0268 C.3     
  13 C13           -2.4677     4.2049     0.0370 C.3     
  14 O14            4.3520     2.5532    -0.0242 O.3     
  15 O15           -1.7310    -1.1529    -1.0417 O.2     
  16 N16            5.3573     3.2242    -0.0293 N.2     
  17 C17            6.4372     2.4822    -0.0438 C.2     
  18 C18            5.9936     1.1318    -0.0429 C.2     
  19 C19            7.8427     2.9569    -0.0542 C.ar    
  20 C20            8.1179     4.3236    -0.0482 C.ar    
  21 C21            8.8901     2.0368    -0.0642 C.ar    
  22 C22           10.1952     2.4798    -0.0739 C.ar    
  23 C23           10.4675     3.8434    -0.0733 C.ar    
  24 C24            9.4243     4.7626    -0.0580 C.ar    
  25 N25           -1.7641    -1.2012     1.1797 N.am    
  26 N26           11.7888     4.2896    -0.0826 N.pl3   
  27 C27           -3.1704     3.8389     1.3459 C.3     
  28 C28           -2.3698     5.7272    -0.0809 C.3     
  29 H29            2.4443    -2.2408    -0.0329 H       
  30 H30            0.7914    -2.5413    -0.0184 H       
  31 H31           -2.0284     1.7106     0.0213 H       
  32 H32           -0.5209     3.9251     0.9159 H       
  33 H33           -0.5297     3.9347    -0.8640 H       
  34 H34           -3.0383     3.8112    -0.8041 H       
  35 H35            6.5930     0.2334    -0.0522 H       
  36 H36            7.3079     5.0378    -0.0363 H       
  37 H37            8.6790     0.9777    -0.0640 H       
  38 H38           11.0068     1.7674    -0.0817 H       
  39 H39            9.6379     5.8213    -0.0578 H       
  40 H40           -1.3532    -0.9357     2.0173 H       
  41 H41           -2.5699    -1.7411     1.1845 H       
  42 H42           12.5171     3.6489    -0.0896 H       
  43 H43           11.9796     5.2407    -0.0822 H       
  44 H44           -4.1720     4.2690     1.3532 H       
  45 H45           -3.2402     2.7544     1.4299 H       
  46 H46           -2.5998     4.2325     2.1871 H       
  47 H47           -1.8692     5.9879    -1.0133 H       
  48 H48           -3.3714     6.1573    -0.0736 H       
  49 H49           -1.7992     6.1208     0.7603 H       
@<TRIPOS>BOND
   1    1    2 2
   2    1    4 1
   3    1   11 1
   4    2    3 1
   5    2    6 1
   6    3   15 2
   7    3   25 am
   8    4    5 1
   9    5    6 2
  10    5    7 1
  11    6   10 1
  12    7    8 1
  13    7    9 2
  14    8   14 1
  15    8   18 2
  16   10   29 1
  17   10   30 1
  18   11   12 1
  19   11   31 1
  20   12   13 1
  21   12   32 1
  22   12   33 1
  23   13   27 1
  24   13   28 1
  25   13   34 1
  26   14   16 1
  27   16   17 2
  28   17   18 1
  29   17   19 1
  30   18   35 1
  31   19   20 ar
  32   19   21 ar
  33   20   24 ar
  34   20   36 1
  35   21   22 ar
  36   21   37 1
  37   22   23 ar
  38   22   38 1
  39   23   24 ar
  40   23   26 1
  41   24   39 1
  42   25   40 1
  43   25   41 1
  44   26   42 1
  45   26   43 1
  46   27   44 1
  47   27   45 1
  48   27   46 1
  49   28   47 1
  50   28   48 1
  51   28   49 1

#	End of record

