#	Name: ASD07930694
#	Creating user name:	WinNT
#	Creation time:	15. 06. 2019 21:13

#	Modifying user name:	WinNT
#	Modification time:	15. 06. 2019 21:13

#	Program:	/corina/corina34_cracker 3.40 0067  02.08.2006

@<TRIPOS>MOLECULE
ASD07930694
  46   48    0    0    0
SMALL
NO_CHARGES


@<TRIPOS>ATOM
   1 C1            -0.0178     1.4608     0.0101 C.3     
   2 N2             0.8031    -0.4153    -2.1619 N.2     
   3 N3            -0.8796    -1.7833    -1.2911 N.pl3   
   4 C4            -0.9005    -2.8248    -0.2586 C.3     
   5 C5            -1.2102    -2.1834     1.1010 C.3     
   6 S6             0.0275    -0.8859     1.4156 S.o2    
   7 N7             0.0021    -0.0041     0.0020 N.am    
   8 C8             0.0002    -0.7257    -1.1832 C.2     
   9 C9             0.4646    -3.5132    -0.1997 C.3     
  10 O10           -0.4323     0.0192     2.4099 O.2     
  11 O11            1.3354    -1.4387     1.4687 O.2     
  12 C12           -1.9634    -3.8404    -0.5898 C.ar    
  13 C13           -2.6074    -4.5221     0.4268 C.ar    
  14 C14           -3.5842    -5.4558     0.1300 C.ar    
  15 C15           -3.9212    -5.7119    -1.1834 C.ar    
  16 C16           -3.2759    -5.0276    -2.2118 C.ar    
  17 C17           -2.2966    -4.0845    -1.9069 C.ar    
  18 C18           -3.6336    -5.2990    -3.6259 C.ar    
  19 C19           -4.6165    -6.2395    -3.9293 C.ar    
  20 C20           -2.9915    -4.6098    -4.6532 C.ar    
  21 C21           -3.3265    -4.8639    -5.9666 C.ar    
  22 C22           -4.3025    -5.8047    -6.2660 C.ar    
  23 C23           -4.9472    -6.4893    -5.2446 C.ar    
  24 O24           -4.6311    -6.0523    -7.5609 O.3     
  25 F25           -6.8326    -6.6337    -7.1775 F       
  26 F26           -5.8558    -7.1612    -9.1741 F       
  27 C27           -5.6436    -7.0326    -7.7973 C.3     
  28 F28           -5.2336    -8.2626    -7.2718 F       
  29 H29            1.0048     1.8381     0.0023 H       
  30 H30           -0.5450     1.8219    -0.8730 H       
  31 H31           -0.5280     1.8123     0.9069 H       
  32 H32            1.4154     0.3313    -2.0687 H       
  33 H33           -1.4804    -1.8399    -2.0505 H       
  34 H34           -2.2071    -1.7432     1.0811 H       
  35 H35           -1.1573    -2.9394     1.8845 H       
  36 H36            1.2322    -2.7780     0.0418 H       
  37 H37            0.4485    -4.2871     0.5677 H       
  38 H38            0.6857    -3.9650    -1.1667 H       
  39 H39           -2.3465    -4.3250     1.4561 H       
  40 H40           -4.0836    -5.9855     0.9278 H       
  41 H41           -4.6834    -6.4415    -1.4139 H       
  42 H42           -1.7933    -3.5513    -2.7000 H       
  43 H43           -5.1183    -6.7723    -3.1352 H       
  44 H44           -2.2327    -3.8773    -4.4209 H       
  45 H45           -2.8293    -4.3301    -6.7631 H       
  46 H46           -5.7061    -7.2206    -5.4805 H       
@<TRIPOS>BOND
   1    1    7 1
   2    1   29 1
   3    1   30 1
   4    1   31 1
   5    2    8 2
   6    2   32 1
   7    3    4 1
   8    3    8 1
   9    3   33 1
  10    4    5 1
  11    4    9 1
  12    4   12 1
  13    5    6 1
  14    5   34 1
  15    5   35 1
  16    6    7 am
  17    6   10 2
  18    6   11 2
  19    7    8 1
  20    9   36 1
  21    9   37 1
  22    9   38 1
  23   12   13 ar
  24   12   17 ar
  25   13   14 ar
  26   13   39 1
  27   14   15 ar
  28   14   40 1
  29   15   16 ar
  30   15   41 1
  31   16   17 ar
  32   16   18 1
  33   17   42 1
  34   18   19 ar
  35   18   20 ar
  36   19   23 ar
  37   19   43 1
  38   20   21 ar
  39   20   44 1
  40   21   22 ar
  41   21   45 1
  42   22   23 ar
  43   22   24 1
  44   23   46 1
  45   24   27 1
  46   25   27 1
  47   26   27 1
  48   27   28 1

#	End of record

