#	Name: ASD01881099
#	Creating user name:	WinNT
#	Creation time:	15. 06. 2019 19:42

#	Modifying user name:	WinNT
#	Modification time:	15. 06. 2019 19:42

#	Program:	/corina/corina34_cracker 3.40 0067  02.08.2006

@<TRIPOS>MOLECULE
ASD01881099
  49   52    0    0    0
SMALL
NO_CHARGES


@<TRIPOS>ATOM
   1 C1             0.0248     1.3725    -0.6554 C.ar    
   2 C2             0.0410    -0.0094    -0.6224 C.ar    
   3 C3             1.2354    -0.6825    -0.4456 C.ar    
   4 C4             2.4136     0.0262    -0.3023 C.ar    
   5 C5             2.3975     1.4080    -0.3362 C.ar    
   6 C6             1.2029     2.0812    -0.5115 C.ar    
   7 C7             3.6818     2.1806    -0.1794 C.3     
   8 C8             3.9198     3.0328    -1.4281 C.3     
   9 C9             5.2432     3.7901    -1.2800 C.3     
  10 N10            5.2133     4.5535    -0.0251 N.pl3   
  11 C11            4.9037     3.8462     1.2250 C.3     
  12 C12            3.5841     3.0883     1.0488 C.3     
  13 C13            5.4721     5.9114    -0.0204 C.2     
  14 C14            4.6192     6.8027    -0.6994 C.2     
  15 C15            4.8588     8.1275    -0.7040 C.2     
  16 N16            5.9308     8.6659    -0.0564 N.pl3   
  17 C17            6.8108     7.8654     0.6299 C.2     
  18 C18            6.5828     6.4198     0.6644 C.2     
  19 C19            6.3966     9.9398     0.0956 C.2     
  20 N20            7.4787     9.8766     0.8248 N.2     
  21 N21            7.7310     8.6559     1.1450 N.2     
  22 C22            7.4760     5.5497     1.3684 C.1     
  23 N23            8.1845     4.8594     1.9268 N.1     
  24 C24            4.1411    13.0307    -0.0499 C.3     
  25 C25            4.7707    11.7616     0.5278 C.3     
  26 C26            5.7765    11.1899    -0.4734 C.3     
  27 H27           -0.9077     1.8983    -0.7979 H       
  28 H28           -0.8795    -0.5630    -0.7344 H       
  29 H29            1.2479    -1.7621    -0.4192 H       
  30 H30            3.3466    -0.4998    -0.1635 H       
  31 H31            1.1904     3.1608    -0.5383 H       
  32 H32            4.5109     1.4847    -0.0514 H       
  33 H33            3.9659     2.3877    -2.3055 H       
  34 H34            3.1035     3.7460    -1.5428 H       
  35 H35            6.0698     3.0799    -1.2562 H       
  36 H36            5.3695     4.4729    -2.1202 H       
  37 H37            5.7026     3.1407     1.4531 H       
  38 H38            4.8060     4.5661     2.0376 H       
  39 H39            2.7709     3.8010     0.9107 H       
  40 H40            3.3913     2.4828     1.9343 H       
  41 H41            3.7585     6.4170    -1.2256 H       
  42 H42            4.1835     8.7815    -1.2356 H       
  43 H43            4.9207    13.7677    -0.2427 H       
  44 H44            3.6295    12.7907    -0.9819 H       
  45 H45            3.4246    13.4380     0.6635 H       
  46 H46            5.2823    12.0016     1.4599 H       
  47 H47            3.9911    11.0246     0.7207 H       
  48 H48            6.5561    11.9269    -0.6663 H       
  49 H49            5.2649    10.9498    -1.4055 H       
@<TRIPOS>BOND
   1    1    2 ar
   2    1    6 ar
   3    1   27 1
   4    2    3 ar
   5    2   28 1
   6    3    4 ar
   7    3   29 1
   8    4    5 ar
   9    4   30 1
  10    5    6 ar
  11    5    7 1
  12    6   31 1
  13    7    8 1
  14    7   12 1
  15    7   32 1
  16    8    9 1
  17    8   33 1
  18    8   34 1
  19    9   10 1
  20    9   35 1
  21    9   36 1
  22   10   11 1
  23   10   13 1
  24   11   12 1
  25   11   37 1
  26   11   38 1
  27   12   39 1
  28   12   40 1
  29   13   14 1
  30   13   18 2
  31   14   15 2
  32   14   41 1
  33   15   16 1
  34   15   42 1
  35   16   17 1
  36   16   19 1
  37   17   18 1
  38   17   21 2
  39   18   22 1
  40   19   20 2
  41   19   26 1
  42   20   21 1
  43   22   23 3
  44   24   25 1
  45   24   43 1
  46   24   44 1
  47   24   45 1
  48   25   26 1
  49   25   46 1
  50   25   47 1
  51   26   48 1
  52   26   49 1

#	End of record

