#	Name: ASD01209078
#	Creating user name:	WinNT
#	Creation time:	15. 06. 2019 19:10

#	Modifying user name:	WinNT
#	Modification time:	15. 06. 2019 19:10

#	Program:	/corina/corina34_cracker 3.40 0067  02.08.2006

@<TRIPOS>MOLECULE
ASD01209078
  53   55    0    0    0
SMALL
NO_CHARGES


@<TRIPOS>ATOM
   1 C1            -0.0652     1.4593    -0.0020 C.ar    
   2 C2             0.0540     0.0769    -0.0350 C.ar    
   3 C3            -1.0786    -0.7236     0.0118 C.ar    
   4 C4            -2.3348    -0.1462     0.0913 C.ar    
   5 C5            -2.4605     1.2453     0.1248 C.ar    
   6 C6            -1.3156     2.0468     0.0832 C.ar    
   7 O7             1.0482     2.2374    -0.0477 O.3     
   8 C8             0.8495     3.6494    -0.1410 C.3     
   9 C9             0.6455     4.2294     1.2600 C.3     
  10 C10           -3.7931     1.8648     0.2088 C.2     
  11 O11           -3.8997     3.0722     0.2378 O.2     
  12 C12           -5.0250     0.9982     0.2588 C.3     
  13 C13           -5.3640     0.6773     1.7159 C.3     
  14 C14           -6.1973     1.7405    -0.3860 C.3     
  15 O15           -0.9548    -2.0766    -0.0209 O.3     
  16 C16           -1.4189    -2.7316    -1.1122 C.ar    
  17 N17           -1.8763    -2.0465    -2.1514 N.ar    
  18 C18           -2.3285    -2.6843    -3.2157 C.ar    
  19 C19           -2.3247    -4.0780    -3.2460 C.ar    
  20 C20            2.0768     4.2956    -0.7868 C.3     
  21 N21           -2.8264    -6.1411    -4.4663 N.am    
  22 C22           -2.8303    -4.7936    -4.4375 C.2     
  23 C23           -1.4100    -4.1276    -1.1443 C.ar    
  24 N24           -1.8648    -4.7648    -2.2012 N.ar    
  25 O25           -3.2494    -4.1666    -5.3907 O.2     
  26 C26           -3.2279    -7.1809    -5.4257 C.3     
  27 C27           -3.4618    -8.1163    -4.2313 C.3     
  28 C28           -2.4127    -7.2185    -3.5548 C.3     
  29 H29            1.0318    -0.3775    -0.0976 H       
  30 H30           -3.2157    -0.7701     0.1269 H       
  31 H31           -1.4072     3.1227     0.1088 H       
  32 H32           -0.0312     3.8529    -0.7502 H       
  33 H33            1.5261     4.0259     1.8693 H       
  34 H34            0.4939     5.3065     1.1889 H       
  35 H35           -0.2289     3.7690     1.7201 H       
  36 H36           -4.8395     0.0712    -0.2837 H       
  37 H37           -5.5496     1.6043     2.2584 H       
  38 H38           -6.2551     0.0505     1.7520 H       
  39 H39           -4.5289     0.1484     2.1752 H       
  40 H40           -5.9558     1.9692    -1.4240 H       
  41 H41           -7.0883     1.1137    -0.3498 H       
  42 H42           -6.3829     2.6675     0.1566 H       
  43 H43           -2.7013    -2.1265    -4.0620 H       
  44 H44            2.2221     3.8824    -1.7849 H       
  45 H45            1.9252     5.3727    -0.8579 H       
  46 H46            2.9574     4.0921    -0.1775 H       
  47 H47           -1.0334    -4.6845    -0.2990 H       
  48 H48           -4.1393    -6.9386    -5.9722 H       
  49 H49           -2.4177    -7.5051    -6.0788 H       
  50 H50           -4.4597    -8.0473    -3.7983 H       
  51 H51           -3.1306    -9.1417    -4.3951 H       
  52 H52           -1.3877    -7.5548    -3.7116 H       
  53 H53           -2.6321    -7.0072    -2.5083 H       
@<TRIPOS>BOND
   1    1    2 ar
   2    1    7 1
   3    1    6 ar
   4    2    3 ar
   5    2   29 1
   6    3    4 ar
   7    3   15 1
   8    4    5 ar
   9    4   30 1
  10    5    6 ar
  11    5   10 1
  12    6   31 1
  13    7    8 1
  14    8    9 1
  15    8   20 1
  16    8   32 1
  17    9   33 1
  18    9   34 1
  19    9   35 1
  20   10   11 2
  21   10   12 1
  22   12   13 1
  23   12   14 1
  24   12   36 1
  25   13   37 1
  26   13   38 1
  27   13   39 1
  28   14   40 1
  29   14   41 1
  30   14   42 1
  31   15   16 1
  32   16   17 ar
  33   16   23 ar
  34   17   18 ar
  35   18   19 ar
  36   18   43 1
  37   19   24 ar
  38   19   22 1
  39   20   44 1
  40   20   45 1
  41   20   46 1
  42   21   22 am
  43   21   26 1
  44   21   28 1
  45   22   25 2
  46   23   24 ar
  47   23   47 1
  48   26   27 1
  49   26   48 1
  50   26   49 1
  51   27   28 1
  52   27   50 1
  53   27   51 1
  54   28   52 1
  55   28   53 1

#	End of record

