#	Name: ASD01884574
#	Creating user name:	WinNT
#	Creation time:	15. 06. 2019 19:48

#	Modifying user name:	WinNT
#	Modification time:	15. 06. 2019 19:48

#	Program:	/corina/corina34_cracker 3.40 0067  02.08.2006

@<TRIPOS>MOLECULE
ASD01884574
  41   44    0    0    0
SMALL
NO_CHARGES


@<TRIPOS>ATOM
   1 C1            -0.0164     1.3576     0.0095 C.2     
   2 C2             0.0021    -0.0041     0.0020 C.2     
   3 C3             1.2440    -0.6751    -0.0134 C.2     
   4 C4             2.4024     0.0465    -0.0206 C.2     
   5 N5             2.3700     1.4024    -0.0126 N.am    
   6 C6             1.1986     2.0652     0.0017 C.2     
   7 O7             1.1911     3.2857     0.0083 O.2     
   8 C8             3.6266     2.1554    -0.0196 C.3     
   9 C9             4.0447     2.4218    -1.4427 C.2     
  10 C10            1.2897    -2.1584    -0.0214 C.ar    
  11 C11            0.8124    -2.8774     1.0728 C.ar    
  12 C12            1.8048    -2.8351    -1.1254 C.ar    
  13 C13            1.8460    -4.2138    -1.1298 C.ar    
  14 C14            1.3747    -4.9272    -0.0363 C.ar    
  15 C15            0.8562    -4.2560     1.0626 C.ar    
  16 O16            1.4158    -6.2856    -0.0439 O.3     
  17 C17            0.9144    -6.9563     1.1140 C.3     
  18 N18            3.7008     3.4562    -2.1124 N.2     
  19 C19            4.1492     3.5641    -3.3776 C.ar    
  20 C20            4.9456     2.4728    -3.7416 C.ar    
  21 S21            5.0422     1.3850    -2.3604 S.3     
  22 C22            3.9283     4.5823    -4.3271 C.ar    
  23 C23            4.4809     4.4988    -5.5689 C.ar    
  24 C24            5.2701     3.4136    -5.9236 C.ar    
  25 C25            5.5029     2.4045    -5.0168 C.ar    
  26 H26           -0.9563     1.8895     0.0169 H       
  27 H27           -0.9217    -0.5635     0.0082 H       
  28 H28            3.3528    -0.4664    -0.0325 H       
  29 H29            3.4854     3.1026     0.5010 H       
  30 H30            4.4003     1.5759     0.4840 H       
  31 H31            0.4089    -2.3558     1.9281 H       
  32 H32            2.1710    -2.2806    -1.9768 H       
  33 H33            2.2451    -4.7388    -1.9851 H       
  34 H34            0.4906    -4.8137     1.9121 H       
  35 H35            1.0055    -8.0339     0.9777 H       
  36 H36            1.4892    -6.6507     1.9883 H       
  37 H37           -0.1340    -6.6958     1.2593 H       
  38 H38            3.3165     5.4338    -4.0682 H       
  39 H39            4.3028     5.2862    -6.2863 H       
  40 H40            5.7019     3.3608    -6.9121 H       
  41 H41            6.1170     1.5603    -5.2936 H       
@<TRIPOS>BOND
   1    1    2 2
   2    1    6 1
   3    1   26 1
   4    2    3 1
   5    2   27 1
   6    3    4 2
   7    3   10 1
   8    4    5 1
   9    4   28 1
  10    5    6 am
  11    5    8 1
  12    6    7 2
  13    8    9 1
  14    8   29 1
  15    8   30 1
  16    9   18 2
  17    9   21 1
  18   10   11 ar
  19   10   12 ar
  20   11   15 ar
  21   11   31 1
  22   12   13 ar
  23   12   32 1
  24   13   14 ar
  25   13   33 1
  26   14   15 ar
  27   14   16 1
  28   15   34 1
  29   16   17 1
  30   17   35 1
  31   17   36 1
  32   17   37 1
  33   18   19 1
  34   19   20 ar
  35   19   22 ar
  36   20   21 1
  37   20   25 ar
  38   22   23 ar
  39   22   38 1
  40   23   24 ar
  41   23   39 1
  42   24   25 ar
  43   24   40 1
  44   25   41 1

#	End of record

