#	Name: ASD01320096
#	Creating user name:	WinNT
#	Creation time:	15. 06. 2019 19:16

#	Modifying user name:	WinNT
#	Modification time:	15. 06. 2019 19:16

#	Program:	/corina/corina34_cracker 3.40 0067  02.08.2006

@<TRIPOS>MOLECULE
ASD01320096
  83   87    0    0    0
SMALL
NO_CHARGES


@<TRIPOS>ATOM
   1 C1             1.1218     2.6214    -0.8187 C.3     
   2 C2             0.4991     1.3224    -0.3142 C.3     
   3 O3            -0.8796     1.5669     0.0057 O.3     
   4 C4             0.5712     0.2521    -1.3962 C.3     
   5 O5            -0.2383     0.6442    -2.5103 O.3     
   6 C6             2.0027     0.0116    -1.8748 C.3     
   7 C7             2.7239     1.3012    -2.1950 C.3     
   8 C8             4.1918     1.0900    -2.5559 C.3     
   9 C9             4.7348     2.3668    -3.2064 C.3     
  10 C10            4.5662     3.5797    -2.2993 C.3     
  11 C11            3.1546     3.6873    -1.7501 C.3     
  12 C12            2.6106     2.3942    -1.1359 C.3     
  13 C13            2.9902     4.8799    -0.8271 C.3     
  14 C14            3.9226     6.0040    -1.1548 C.2     
  15 C15            4.7629     6.0322    -2.1429 C.2     
  16 C16            4.8596     4.8653    -3.1059 C.3     
  17 C17            6.2796     4.8300    -3.6576 C.3     
  18 C18            6.6601     6.0988    -4.3999 C.3     
  19 C19            6.1294     7.3838    -3.7681 C.3     
  20 C20            5.7326     7.1708    -2.3208 C.3     
  21 C21            5.3041     8.4314    -1.5967 C.3     
  22 C22            6.3800     9.5140    -1.7146 C.3     
  23 C23            6.7919     9.7311    -3.1669 C.3     
  24 C24            7.2644     8.4268    -3.7998 C.3     
  25 C25            2.7520    -0.8621    -0.8706 C.3     
  26 O26            2.1543    -2.1594    -0.8287 O.3     
  27 C27            1.8867    -0.8081    -3.1857 C.3     
  28 C28            3.3193     2.0344     0.1616 C.3     
  29 C29            5.6065     3.5053    -1.1713 C.3     
  30 C30            3.8522     5.0138    -4.2441 C.3     
  31 C31            5.0202     7.8970    -4.6408 C.2     
  32 O32            3.8802     7.8809    -4.2408 O.2     
  33 C33            3.9497     8.9862    -2.0109 C.3     
  34 O34            5.2953     8.3736    -5.8651 O.3     
  35 C35            5.8328    10.8258    -1.1404 C.3     
  36 H36            0.6122     2.9527    -1.7214 H       
  37 H37            1.0385     3.3893    -0.0491 H       
  38 H38            0.9960     0.9778     0.5902 H       
  39 H39           -1.3508     0.7893     0.3350 H       
  40 H40            0.1726    -0.6877    -0.9956 H       
  41 H41           -1.1725     0.7681    -2.2934 H       
  42 H42            2.2404     1.7174    -3.1133 H       
  43 H43            4.7865     0.8420    -1.6827 H       
  44 H44            4.2873     0.2758    -3.2811 H       
  45 H45            5.8005     2.2194    -3.4158 H       
  46 H46            4.2175     2.5079    -4.1549 H       
  47 H47            2.4655     3.8749    -2.6065 H       
  48 H48            1.9669     5.2552    -0.9195 H       
  49 H49            3.1543     4.5956     0.2076 H       
  50 H50            3.9031     6.8459    -0.4808 H       
  51 H51            7.0058     4.6908    -2.8547 H       
  52 H52            6.3720     3.9842    -4.3475 H       
  53 H53            7.7510     6.1652    -4.4349 H       
  54 H54            6.2923     6.0387    -5.4238 H       
  55 H55            6.6769     6.8349    -1.8005 H       
  56 H56            5.2347     8.1851    -0.5142 H       
  57 H57            7.2531     9.2113    -1.1305 H       
  58 H58            5.9737    10.1671    -3.7343 H       
  59 H59            7.6258    10.4492    -3.1886 H       
  60 H60            8.1157     8.0350    -3.2432 H       
  61 H61            7.5537     8.6004    -4.8352 H       
  62 H62            3.7949    -0.9522    -1.1745 H       
  63 H63            2.6998    -0.4058     0.1180 H       
  64 H64            2.5800    -2.7688    -0.2103 H       
  65 H65            1.3172    -0.2392    -3.9208 H       
  66 H66            2.8837    -1.0113    -3.5766 H       
  67 H67            1.3776    -1.7500    -2.9814 H       
  68 H68            2.7688     1.2420     0.6686 H       
  69 H69            4.3298     1.6907    -0.0596 H       
  70 H70            3.3670     2.9128     0.8052 H       
  71 H71            6.6045     3.6415    -1.5878 H       
  72 H72            5.4073     4.2896    -0.4411 H       
  73 H73            5.5457     2.5318    -0.6846 H       
  74 H74            2.8598     5.1925    -3.8300 H       
  75 H75            4.1390     5.8545    -4.8758 H       
  76 H76            3.8386     4.1004    -4.8388 H       
  77 H77            3.2130     8.1828    -2.0123 H       
  78 H78            3.6429     9.7593    -1.3065 H       
  79 H79            4.0227     9.4139    -3.0108 H       
  80 H80            4.5485     8.6929    -6.3899 H       
  81 H81            5.5694    10.6818    -0.0926 H       
  82 H82            6.5931    11.6026    -1.2205 H       
  83 H83            4.9467    11.1256    -1.6999 H       
@<TRIPOS>BOND
   1    1    2 1
   2    1   12 1
   3    1   36 1
   4    1   37 1
   5    2    3 1
   6    2    4 1
   7    2   38 1
   8    3   39 1
   9    4    5 1
  10    4    6 1
  11    4   40 1
  12    5   41 1
  13    6    7 1
  14    6   25 1
  15    6   27 1
  16    7    8 1
  17    7   12 1
  18    7   42 1
  19    8    9 1
  20    8   43 1
  21    8   44 1
  22    9   10 1
  23    9   45 1
  24    9   46 1
  25   10   11 1
  26   10   16 1
  27   10   29 1
  28   11   12 1
  29   11   13 1
  30   11   47 1
  31   12   28 1
  32   13   14 1
  33   13   48 1
  34   13   49 1
  35   14   15 2
  36   14   50 1
  37   15   16 1
  38   15   20 1
  39   16   17 1
  40   16   30 1
  41   17   18 1
  42   17   51 1
  43   17   52 1
  44   18   19 1
  45   18   53 1
  46   18   54 1
  47   19   20 1
  48   19   24 1
  49   19   31 1
  50   20   21 1
  51   20   55 1
  52   21   22 1
  53   21   33 1
  54   21   56 1
  55   22   23 1
  56   22   35 1
  57   22   57 1
  58   23   24 1
  59   23   58 1
  60   23   59 1
  61   24   60 1
  62   24   61 1
  63   25   26 1
  64   25   62 1
  65   25   63 1
  66   26   64 1
  67   27   65 1
  68   27   66 1
  69   27   67 1
  70   28   68 1
  71   28   69 1
  72   28   70 1
  73   29   71 1
  74   29   72 1
  75   29   73 1
  76   30   74 1
  77   30   75 1
  78   30   76 1
  79   31   32 2
  80   31   34 1
  81   33   77 1
  82   33   78 1
  83   33   79 1
  84   34   80 1
  85   35   81 1
  86   35   82 1
  87   35   83 1

#	End of record

