#	Name: ASD03331718
#	Creating user name:	WinNT
#	Creation time:	15. 06. 2019 20:39

#	Modifying user name:	WinNT
#	Modification time:	15. 06. 2019 20:39

#	Program:	/corina/corina34_cracker 3.40 0067  02.08.2006

@<TRIPOS>MOLECULE
ASD03331718
  49   52    0    0    0
SMALL
NO_CHARGES


@<TRIPOS>ATOM
   1 C1             1.1645    -0.4236    -1.2316 C.ar    
   2 C2             0.6530     0.0114    -2.4411 C.ar    
   3 C3             1.1633     1.1481    -3.0422 C.ar    
   4 C4             2.1853     1.8519    -2.4359 C.ar    
   5 C5             2.7007     1.4176    -1.2218 C.ar    
   6 C6             2.1865     0.2762    -0.6207 C.ar    
   7 N7             3.7367     2.1285    -0.6053 N.am    
   8 C8             3.7762     3.4729    -0.6923 C.2     
   9 N9             4.7205     4.1640    -0.0235 N.am    
  10 O10            2.9600     4.0623    -1.3740 O.2     
  11 C11            4.8223     5.5499    -0.1892 C.ar    
  12 C12            3.7725     7.6838    -0.5293 C.ar    
  13 C13            3.6760     6.3147    -0.3653 C.ar    
  14 C14            6.0671     6.1609    -0.1719 C.ar    
  15 C15            6.1634     7.5401    -0.3367 C.ar    
  16 C16            5.0081     8.2990    -0.5181 C.ar    
  17 C17            7.4918     8.2004    -0.3188 C.ar    
  18 N18            8.5869     7.4693    -0.1505 N.ar    
  19 C19            7.5782     9.5795    -0.4843 C.ar    
  20 C20            8.8241    10.1867    -0.4665 C.ar    
  21 C21            9.9448     9.3946    -0.2835 C.ar    
  22 C22            9.7896     8.0203    -0.1291 C.ar    
  23 N23           10.9103     7.2178     0.0502 N.3     
  24 C24           12.4762     5.9370    -1.2392 C.3     
  25 C25           11.8389     7.3413    -1.0936 C.3     
  26 C26           10.5281     5.8010     0.1937 C.3     
  27 C27           11.2775     5.0122    -0.9007 C.3     
  28 I28           -0.8968    -1.0536    -3.3645 I       
  29 H29            0.7612    -1.3088    -0.7624 H       
  30 H30            0.7623     1.4852    -3.9866 H       
  31 H31            2.5835     2.7390    -2.9058 H       
  32 H32            2.5851    -0.0637     0.3237 H       
  33 H33            4.4263     1.6537    -0.1155 H       
  34 H34            5.3295     3.7008     0.5727 H       
  35 H35            2.8784     8.2739    -0.6666 H       
  36 H36            2.7068     5.8382    -0.3745 H       
  37 H37            6.9592     5.5688    -0.0307 H       
  38 H38            5.0796     9.3690    -0.6465 H       
  39 H39            6.6849    10.1698    -0.6254 H       
  40 H40            8.9187    11.2551    -0.5930 H       
  41 H41           10.9294     9.8381    -0.2649 H       
  42 H42           12.8229     5.7694    -2.2589 H       
  43 H43           13.2883     5.8008    -0.5250 H       
  44 H44           11.2926     7.6059    -1.9990 H       
  45 H45           12.6059     8.0860    -0.8809 H       
  46 H46           10.8193     5.4363     1.1788 H       
  47 H47            9.4521     5.6916     0.0586 H       
  48 H48           10.6428     4.8683    -1.7751 H       
  49 H49           11.6266     4.0544    -0.5148 H       
@<TRIPOS>BOND
   1    1    2 ar
   2    1    6 ar
   3    1   29 1
   4    2    3 ar
   5    2   28 1
   6    3    4 ar
   7    3   30 1
   8    4    5 ar
   9    4   31 1
  10    5    6 ar
  11    5    7 1
  12    6   32 1
  13    7    8 am
  14    7   33 1
  15    8    9 am
  16    8   10 2
  17    9   11 1
  18    9   34 1
  19   11   14 ar
  20   11   13 ar
  21   12   13 ar
  22   12   16 ar
  23   12   35 1
  24   13   36 1
  25   14   15 ar
  26   14   37 1
  27   15   16 ar
  28   15   17 1
  29   16   38 1
  30   17   19 ar
  31   17   18 ar
  32   18   22 ar
  33   19   20 ar
  34   19   39 1
  35   20   21 ar
  36   20   40 1
  37   21   22 ar
  38   21   41 1
  39   22   23 1
  40   23   26 1
  41   23   25 1
  42   24   25 1
  43   24   27 1
  44   24   42 1
  45   24   43 1
  46   25   44 1
  47   25   45 1
  48   26   27 1
  49   26   46 1
  50   26   47 1
  51   27   48 1
  52   27   49 1

#	End of record

