#	Name: ASD01917984
#	Creating user name:	WinNT
#	Creation time:	15. 06. 2019 20:10

#	Modifying user name:	WinNT
#	Modification time:	15. 06. 2019 20:10

#	Program:	/corina/corina34_cracker 3.40 0067  02.08.2006

@<TRIPOS>MOLECULE
ASD01917984
  41   44    0    0    0
SMALL
NO_CHARGES


@<TRIPOS>ATOM
   1 N1             4.8181    -0.4146    -2.1416 N.ar    
   2 C2             5.2856     0.2841    -3.1577 C.ar    
   3 C3             5.1747     1.6616    -3.1827 C.ar    
   4 C4             4.5627     2.3104    -2.1223 C.ar    
   5 C5             4.0808     1.5427    -1.0668 C.ar    
   6 C6             4.2295     0.1637    -1.1138 C.ar    
   7 O7             3.4737     2.1347    -0.0049 O.3     
   8 C8             3.4562     3.4938     0.0445 C.2     
   9 N9             2.2080     5.5081    -0.0207 N.pl3   
  10 C10            2.2742     4.1522    -0.0650 C.2     
  11 C11            4.6567     4.1938     0.2134 C.2     
  12 C12            4.6306     5.5832     0.2635 C.2     
  13 C13            3.3390     6.2578     0.1364 C.2     
  14 C14            5.8717     6.3557     0.4404 C.2     
  15 N15            5.8267     7.7020     0.4866 N.am    
  16 C16            6.9835     8.4286     0.7592 C.ar    
  17 N17            8.1439     7.7985     0.8646 N.ar    
  18 C18            6.9093     9.8072     0.9122 C.ar    
  19 C19            8.0655    10.5210     1.1828 C.ar    
  20 C20            9.2609     9.8291     1.2915 C.ar    
  21 C21            9.2653     8.4512     1.1221 C.ar    
  22 O22            6.9374     5.7790     0.5449 O.2     
  23 N23            1.1463     6.4205    -0.1070 N.2     
  24 C24            1.6626     7.6227    -0.0098 C.2     
  25 N25            2.9776     7.5311     0.1423 N.2     
  26 O26           10.4323     7.7666     1.2222 O.3     
  27 C27           10.3717     6.3507     1.0384 C.3     
  28 H28            5.7620    -0.2270    -3.9813 H       
  29 H29            5.5608     2.2256    -4.0189 H       
  30 H30            4.4626     3.3857    -2.1151 H       
  31 H31            3.8587    -0.4418    -0.3000 H       
  32 H32            1.3643     3.5841    -0.1907 H       
  33 H33            5.5919     3.6612     0.3041 H       
  34 H34            4.9888     8.1649     0.3300 H       
  35 H35            5.9614    10.3167     0.8210 H       
  36 H36            8.0356    11.5935     1.3059 H       
  37 H37           10.1798    10.3563     1.5013 H       
  38 H38            1.1021     8.5454    -0.0406 H       
  39 H39            9.7113     5.9150     1.7881 H       
  40 H40            9.9870     6.1297     0.0427 H       
  41 H41           11.3706     5.9275     1.1441 H       
@<TRIPOS>BOND
   1    1    2 ar
   2    1    6 ar
   3    2    3 ar
   4    2   28 1
   5    3    4 ar
   6    3   29 1
   7    4    5 ar
   8    4   30 1
   9    5    6 ar
  10    5    7 1
  11    6   31 1
  12    7    8 1
  13    8   11 1
  14    8   10 2
  15    9   10 1
  16    9   23 1
  17    9   13 1
  18   10   32 1
  19   11   12 2
  20   11   33 1
  21   12   13 1
  22   12   14 1
  23   13   25 2
  24   14   15 am
  25   14   22 2
  26   15   16 1
  27   15   34 1
  28   16   18 ar
  29   16   17 ar
  30   17   21 ar
  31   18   19 ar
  32   18   35 1
  33   19   20 ar
  34   19   36 1
  35   20   21 ar
  36   20   37 1
  37   21   26 1
  38   23   24 2
  39   24   25 1
  40   24   38 1
  41   26   27 1
  42   27   39 1
  43   27   40 1
  44   27   41 1

#	End of record

