#	Name: ASD01884059
#	Creating user name:	WinNT
#	Creation time:	15. 06. 2019 19:47

#	Modifying user name:	WinNT
#	Modification time:	15. 06. 2019 19:47

#	Program:	/corina/corina34_cracker 3.40 0067  02.08.2006

@<TRIPOS>MOLECULE
ASD01884059
  48   50    0    0    0
SMALL
NO_CHARGES


@<TRIPOS>ATOM
   1 C1             2.8119     1.3688     1.1091 C.2     
   2 C2             2.3422     0.0367     0.9994 C.2     
   3 C3             3.2008    -0.9395     0.4635 C.2     
   4 C4             4.4935    -0.5539     0.0572 C.2     
   5 C5             4.8862     0.7335     0.1864 C.2     
   6 N6             4.0578     1.6769     0.7038 N.am    
   7 C7             1.0197    -0.3088     1.4262 C.1     
   8 N8            -0.0295    -0.5828     1.7647 N.1     
   9 O9             2.0866     2.2361     1.5654 O.2     
  10 C10            2.7560    -2.3423     0.3297 C.ar    
  11 C11            2.6184    -2.9155    -0.9372 C.ar    
  12 C12            2.2033    -4.2241    -1.0577 C.ar    
  13 C13            1.9217    -4.9735     0.0800 C.ar    
  14 C14            2.0573    -4.4061     1.3408 C.ar    
  15 C15            2.4778    -3.1003     1.4694 C.ar    
  16 O16            1.5130    -6.2625    -0.0422 O.3     
  17 C17           -0.5050    -7.5639     2.6912 C.ar    
  18 C18           -0.1702    -6.8777     1.5417 C.ar    
  19 C19            1.1445    -6.9236     1.0844 C.ar    
  20 C20            2.0716    -7.6658     1.8127 C.ar    
  21 C21            1.6574    -8.3239     2.9522 C.ar    
  22 N22            0.4020    -8.2563     3.3537 N.ar    
  23 C23           -1.9229    -7.5168     3.1995 C.3     
  24 Cl24           2.0311    -4.9378    -2.6308 Cl      
  25 C25            4.5298     3.0587     0.8228 C.3     
  26 C26            5.1948     3.2548     2.1867 C.3     
  27 C27            5.6877     4.6979     2.3110 C.3     
  28 C28            6.3527     4.8940     3.6749 C.3     
  29 H29            5.1706    -1.2863    -0.3569 H       
  30 H30            5.8796     1.0173    -0.1281 H       
  31 H31            2.8366    -2.3338    -1.8206 H       
  32 H32            1.8374    -4.9910     2.2217 H       
  33 H33            2.5874    -2.6618     2.4502 H       
  34 H34           -0.9174    -6.3132     1.0039 H       
  35 H35            3.1003    -7.7255     1.4894 H       
  36 H36            2.3694    -8.9016     3.5229 H       
  37 H37           -2.4937    -8.3349     2.7602 H       
  38 H38           -1.9231    -7.6155     4.2851 H       
  39 H39           -2.3773    -6.5661     2.9210 H       
  40 H40            5.2524     3.2651     0.0332 H       
  41 H41            3.6847     3.7407     0.7292 H       
  42 H42            4.4722     3.0484     2.9763 H       
  43 H43            6.0399     2.5728     2.2803 H       
  44 H44            6.4103     4.9043     1.5214 H       
  45 H45            4.8426     5.3799     2.2174 H       
  46 H46            6.7039     5.9221     3.7634 H       
  47 H47            5.6301     4.6876     4.4644 H       
  48 H48            7.1978     4.2120     3.7685 H       
@<TRIPOS>BOND
   1    1    2 1
   2    1    6 am
   3    1    9 2
   4    2    3 2
   5    2    7 1
   6    3    4 1
   7    3   10 1
   8    4    5 2
   9    4   29 1
  10    5    6 1
  11    5   30 1
  12    6   25 1
  13    7    8 3
  14   10   11 ar
  15   10   15 ar
  16   11   12 ar
  17   11   31 1
  18   12   13 ar
  19   12   24 1
  20   13   14 ar
  21   13   16 1
  22   14   15 ar
  23   14   32 1
  24   15   33 1
  25   16   19 1
  26   17   18 ar
  27   17   22 ar
  28   17   23 1
  29   18   19 ar
  30   18   34 1
  31   19   20 ar
  32   20   21 ar
  33   20   35 1
  34   21   22 ar
  35   21   36 1
  36   23   37 1
  37   23   38 1
  38   23   39 1
  39   25   26 1
  40   25   40 1
  41   25   41 1
  42   26   27 1
  43   26   42 1
  44   26   43 1
  45   27   28 1
  46   27   44 1
  47   27   45 1
  48   28   46 1
  49   28   47 1
  50   28   48 1

#	End of record

