#	Name: ASD02030043
#	Creating user name:	WinNT
#	Creation time:	15. 06. 2019 20:14

#	Modifying user name:	WinNT
#	Modification time:	15. 06. 2019 20:14

#	Program:	/corina/corina34_cracker 3.40 0067  02.08.2006

@<TRIPOS>MOLECULE
ASD02030043
  49   53    0    0    0
SMALL
NO_CHARGES


@<TRIPOS>ATOM
   1 C1            -0.1892     1.0363    -1.0406 C.ar    
   2 C2            -0.2754    -0.3531    -1.2433 C.ar    
   3 C3            -1.5292    -0.9615    -1.1756 C.ar    
   4 N4            -2.6057    -0.2527    -0.9281 N.ar    
   5 C5            -2.5632     1.0632    -0.7311 C.ar    
   6 C6            -1.3542     1.7510    -0.7761 C.ar    
   7 C7             1.2330     1.3908    -1.1686 C.ar    
   8 C8             1.9154     0.1941    -1.4402 C.ar    
   9 N9             0.9928    -0.8353    -1.4801 N.pl3   
  10 C10            1.9377     2.5887    -1.0751 C.ar    
  11 C11            3.3047     2.5951    -1.2499 C.ar    
  12 C12            3.9800     1.4143    -1.5182 C.ar    
  13 C13            3.2958     0.2217    -1.6134 C.ar    
  14 C14           -3.8145     1.8019    -0.4570 C.2     
  15 N15           -4.9891     1.1429    -0.4077 N.am    
  16 O16           -3.7837     3.0035    -0.2761 O.2     
  17 C17           -6.2288     1.8748    -0.1362 C.3     
  18 C18           -7.2451     0.9367     0.4622 C.2     
  19 C19           -6.7759     2.4535    -1.4425 C.3     
  20 N20           -8.4689     1.3926     0.7955 N.am    
  21 O21           -6.9618    -0.2284     0.6440 O.2     
  22 C22           -9.4409     0.5063     1.2583 C.ar    
  23 C23          -10.7775     0.6981     0.9099 C.ar    
  24 C24           -9.0726    -0.5674     2.0599 C.ar    
  25 C25          -10.0270    -1.4537     2.5243 C.ar    
  26 C26          -11.3610    -1.2701     2.1885 C.ar    
  27 C27          -11.7381    -0.1838     1.3708 C.ar    
  28 C28          -12.6085    -1.9957     2.4965 C.2     
  29 N29          -13.6334    -1.3626     1.8982 N.am    
  30 C30          -13.2049    -0.2860     1.2148 C.2     
  31 O31          -13.9053     0.4749     0.5781 O.2     
  32 O32          -12.6953    -2.9985     3.1767 O.2     
  33 H33           -1.6149    -2.0271    -1.3288 H       
  34 H34           -1.3213     2.8185    -0.6161 H       
  35 H35            1.2084    -1.7656    -1.6505 H       
  36 H36            1.4142     3.5100    -0.8667 H       
  37 H37            3.8519     3.5234    -1.1781 H       
  38 H38            5.0513     1.4293    -1.6540 H       
  39 H39            3.8316    -0.6923    -1.8227 H       
  40 H40           -5.0137     0.1840    -0.5521 H       
  41 H41           -6.0262     2.6855     0.5637 H       
  42 H42           -7.6983     2.9981    -1.2405 H       
  43 H43           -6.0408     3.1320    -1.8754 H       
  44 H44           -6.9785     1.6428    -2.1424 H       
  45 H45           -8.6735     2.3372     0.7133 H       
  46 H46          -11.0611     1.5311     0.2837 H       
  47 H47           -8.0346    -0.7107     2.3214 H       
  48 H48           -9.7350    -2.2868     3.1464 H       
  49 H49          -14.5593    -1.6469     1.9500 H       
@<TRIPOS>BOND
   1    1    2 ar
   2    1    7 1
   3    1    6 ar
   4    2    3 ar
   5    2    9 1
   6    3    4 ar
   7    3   33 1
   8    4    5 ar
   9    5    6 ar
  10    5   14 1
  11    6   34 1
  12    7    8 ar
  13    7   10 ar
  14    8    9 1
  15    8   13 ar
  16    9   35 1
  17   10   11 ar
  18   10   36 1
  19   11   12 ar
  20   11   37 1
  21   12   13 ar
  22   12   38 1
  23   13   39 1
  24   14   15 am
  25   14   16 2
  26   15   17 1
  27   15   40 1
  28   17   18 1
  29   17   19 1
  30   17   41 1
  31   18   20 am
  32   18   21 2
  33   19   42 1
  34   19   43 1
  35   19   44 1
  36   20   22 1
  37   20   45 1
  38   22   23 ar
  39   22   24 ar
  40   23   27 ar
  41   23   46 1
  42   24   25 ar
  43   24   47 1
  44   25   26 ar
  45   25   48 1
  46   26   27 ar
  47   26   28 1
  48   27   30 1
  49   28   29 am
  50   28   32 2
  51   29   30 am
  52   29   49 1
  53   30   31 2

#	End of record

