#	Name: ASD01908171
#	Creating user name:	WinNT
#	Creation time:	15. 06. 2019 19:54

#	Modifying user name:	WinNT
#	Modification time:	15. 06. 2019 19:54

#	Program:	/corina/corina34_cracker 3.40 0067  02.08.2006

@<TRIPOS>MOLECULE
ASD01908171
  37   38    0    0    0
SMALL
NO_CHARGES


@<TRIPOS>ATOM
   1 C1             0.0580     1.3298    -0.6580 C.2     
   2 C2             0.1409    -0.1742    -0.7027 C.3     
   3 N3             2.5645     3.8108     0.1610 N.pl3   
   4 N4             3.2932     2.6261     0.3130 N.2     
   5 C5             2.5165     1.6130     0.0485 C.2     
   6 C6             1.2382     2.1187    -0.2890 C.2     
   7 C7             1.3126     3.4987    -0.2059 C.2     
   8 C8             3.0807     5.1653     0.3733 C.3     
   9 C9             2.9893     5.5141     1.8365 C.ar    
  10 C10            3.9981     5.1320     2.7014 C.ar    
  11 C11            3.9167     5.4505     4.0431 C.ar    
  12 C12            2.8216     6.1545     4.5226 C.ar    
  13 C13            1.8107     6.5367     3.6527 C.ar    
  14 C14            1.8996     6.2207     2.3108 C.ar    
  15 O15            2.7390     6.4686     5.8422 O.3     
  16 C16            1.5831     7.1947     6.2650 C.3     
  17 C17            0.1935     4.4708    -0.4770 C.3     
  18 C18            0.1312     4.7716    -1.9759 C.3     
  19 Br19          -1.6041    -0.9114    -1.2287 Br      
  20 O20           -0.9835     1.8883    -0.9320 O.2     
  21 H21            0.8962    -0.4751    -1.4287 H       
  22 H22            0.4130    -0.5526     0.2827 H       
  23 H23            2.7988     0.5710     0.0811 H       
  24 H24            4.1215     5.2118     0.0530 H       
  25 H25            2.4900     5.8743    -0.2068 H       
  26 H26            4.8503     4.5837     2.3277 H       
  27 H27            4.7048     5.1515     4.7184 H       
  28 H28            0.9572     7.0848     4.0235 H       
  29 H29            1.1152     6.5221     1.6324 H       
  30 H30            1.5370     8.1456     5.7342 H       
  31 H31            0.6881     6.6125     6.0460 H       
  32 H32            1.6427     7.3799     7.3375 H       
  33 H33           -0.7522     4.0354    -0.1542 H       
  34 H34            0.3741     5.3951     0.0719 H       
  35 H35           -0.0904     3.8545    -2.5216 H       
  36 H36           -0.6512     5.5062    -2.1668 H       
  37 H37            1.0909     5.1686    -2.3070 H       
@<TRIPOS>BOND
   1    1    2 1
   2    1    6 1
   3    1   20 2
   4    2   19 1
   5    2   21 1
   6    2   22 1
   7    3    4 1
   8    3    7 1
   9    3    8 1
  10    4    5 2
  11    5    6 1
  12    5   23 1
  13    6    7 2
  14    7   17 1
  15    8    9 1
  16    8   24 1
  17    8   25 1
  18    9   10 ar
  19    9   14 ar
  20   10   11 ar
  21   10   26 1
  22   11   12 ar
  23   11   27 1
  24   12   13 ar
  25   12   15 1
  26   13   14 ar
  27   13   28 1
  28   14   29 1
  29   15   16 1
  30   16   30 1
  31   16   31 1
  32   16   32 1
  33   17   18 1
  34   17   33 1
  35   17   34 1
  36   18   35 1
  37   18   36 1
  38   18   37 1

#	End of record

