#	Name: ASD01812419
#	Creating user name:	WinNT
#	Creation time:	15. 06. 2019 19:28

#	Modifying user name:	WinNT
#	Modification time:	15. 06. 2019 19:28

#	Program:	/corina/corina34_cracker 3.40 0067  02.08.2006

@<TRIPOS>MOLECULE
ASD01812419
  31   30    0    0    0
SMALL
NO_CHARGES


@<TRIPOS>ATOM
   1 I1             0.0000     0.0000     0.0000 I       
   2 C2             8.5535    12.6964     6.0149 C.3     
   3 O3             8.5358    11.2878     6.2547 O.3     
   4 C4             7.3354    10.6576     6.1441 C.2     
   5 N5             6.2402    11.2978     5.8278 N.2     
   6 S6             5.0000    10.1407     5.8025 S.3     
   7 N7             5.9854     8.8239     6.2181 N.2     
   8 C8             7.1965     9.2978     6.3532 C.2     
   9 O9             8.2512     8.5049     6.6833 O.3     
  10 C10            7.9828     7.1144     6.8740 C.3     
  11 C11            9.2805     6.3896     7.2368 C.3     
  12 N12            9.7359     6.8340     8.5608 N.4     
  13 C13            8.6630     6.6268     9.5427 C.3     
  14 C14           10.9190     6.0587     8.9574 C.3     
  15 C15           10.0811     8.2608     8.5065 C.3     
  16 H16            9.5693    13.0728     6.1356 H       
  17 H17            8.2100    12.8966     5.0000 H       
  18 H18            7.8946    13.1944     6.7263 H       
  19 H19            7.2601     6.9912     7.6806 H       
  20 H20            7.5763     6.6933     5.9545 H       
  21 H21            9.1030     5.3143     7.2557 H       
  22 H22           10.0445     6.6187     6.4940 H       
  23 H23            8.4069     5.5681     9.5830 H       
  24 H24            9.0009     6.9565    10.5251 H       
  25 H25            7.7852     7.2020     9.2484 H       
  26 H26           11.7150     6.2124     8.2289 H       
  27 H27           11.2569     6.3885     9.9398 H       
  28 H28           10.6628     5.0000     8.9977 H       
  29 H29            9.1724     8.8500     8.3826 H       
  30 H30           10.5782     8.5499     9.4324 H       
  31 H31           10.7487     8.4412     7.6640 H       
@<TRIPOS>BOND
   1    2    3 1
   2    2   16 1
   3    2   17 1
   4    2   18 1
   5    3    4 1
   6    4    8 1
   7    4    5 2
   8    5    6 1
   9    6    7 1
  10    7    8 2
  11    8    9 1
  12    9   10 1
  13   10   11 1
  14   10   19 1
  15   10   20 1
  16   11   12 1
  17   11   21 1
  18   11   22 1
  19   12   13 1
  20   12   14 1
  21   12   15 1
  22   13   23 1
  23   13   24 1
  24   13   25 1
  25   14   26 1
  26   14   27 1
  27   14   28 1
  28   15   29 1
  29   15   30 1
  30   15   31 1

#	End of record

