#	Name: ASD02500496
#	Creating user name:	WinNT
#	Creation time:	15. 06. 2019 20:22

#	Modifying user name:	WinNT
#	Modification time:	15. 06. 2019 20:22

#	Program:	/corina/corina34_cracker 3.40 0067  02.08.2006

@<TRIPOS>MOLECULE
ASD02500496
  74   78    0    0    0
SMALL
NO_CHARGES


@<TRIPOS>ATOM
   1 N1             1.7440     4.1805    -1.3707 N.ar    
   2 C2             2.7169     3.9691    -0.5181 C.ar    
   3 C3             3.8696     3.2742    -0.8785 C.ar    
   4 C4             4.0062     2.7931    -2.1494 C.ar    
   5 C5             2.9591     3.0217    -3.0622 C.ar    
   6 C6             3.0283     2.5579    -4.3854 C.ar    
   7 C7             1.9946     2.7997    -5.2382 C.ar    
   8 C8             0.8682     3.5021    -4.8152 C.ar    
   9 C9             0.7680     3.9660    -3.5396 C.ar    
  10 C10            1.8144     3.7364    -2.6296 C.ar    
  11 S11           -0.6677     4.8521    -3.0311 S.o2    
  12 O12           -0.2043     6.0196    -2.3667 O.2     
  13 O13           -1.5349     4.8905    -4.1561 O.2     
  14 N14           -1.4303     3.9329    -1.8840 N.am    
  15 C15           -1.9572     2.6921    -2.2249 C.ar    
  16 C16           -1.7194     1.5888    -1.4098 C.ar    
  17 C17           -2.2395     0.3595    -1.7445 C.ar    
  18 C18           -3.0073     0.2193    -2.9042 C.ar    
  19 C19           -3.2443     1.3291    -3.7206 C.ar    
  20 C20           -2.7262     2.5569    -3.3775 C.ar    
  21 C21           -3.5659    -1.0973    -3.2662 C.2     
  22 O22           -4.6989    -1.1785    -3.7001 O.2     
  23 N23           -2.8205    -2.2100    -3.1158 N.am    
  24 C24           -3.3321    -3.4367    -3.5763 C.3     
  25 C25           -3.4164    -4.4599    -2.4152 C.3     
  26 N26           -2.0733    -4.8857    -2.0785 N.3     
  27 C27           -1.4308    -4.1343    -0.9803 C.3     
  28 C28           -1.6443    -2.6239    -1.0653 C.3     
  29 C29           -1.4926    -2.0973    -2.4787 C.3     
  30 C30           -2.0278    -6.3318    -1.8242 C.3     
  31 C31           -2.3307    -7.0759    -3.0991 C.ar    
  32 C32           -1.3396    -7.2480    -4.0549 C.ar    
  33 C33           -1.6217    -7.9334    -5.2274 C.ar    
  34 C34           -2.8882    -8.4428    -5.4409 C.ar    
  35 C35           -3.8740    -8.2695    -4.4873 C.ar    
  36 C36           -3.5936    -7.5919    -3.3148 C.ar    
  37 O37           -0.0949    -6.7457    -3.8427 O.3     
  38 C38            0.8983    -7.0354    -4.8284 C.3     
  39 C39            1.9989    -5.9741    -4.7709 C.3     
  40 C40            1.5037    -8.4133    -4.5529 C.3     
  41 H41            2.6228     4.3438     0.4904 H       
  42 H42            4.6546     3.1165    -0.1537 H       
  43 H43            4.8930     2.2527    -2.4460 H       
  44 H44            3.8966     2.0128    -4.7252 H       
  45 H45            2.0487     2.4425    -6.2560 H       
  46 H46            0.0618     3.6817    -5.5108 H       
  47 H47           -1.5095     4.2601    -0.9743 H       
  48 H48           -1.1258     1.6977    -0.5142 H       
  49 H49           -2.0544    -0.4961    -1.1120 H       
  50 H50           -3.8368     1.2238    -4.6174 H       
  51 H51           -2.9129     3.4157    -4.0052 H       
  52 H52           -4.3282    -3.2786    -3.9895 H       
  53 H53           -2.6783    -3.8294    -4.3551 H       
  54 H54           -3.8804    -3.9913    -1.5473 H       
  55 H55           -4.0059    -5.3215    -2.7286 H       
  56 H56           -1.8332    -4.4905    -0.0320 H       
  57 H57           -0.3599    -4.3367    -0.9993 H       
  58 H58           -2.6458    -2.3883    -0.7052 H       
  59 H59           -0.9153    -2.1279    -0.4244 H       
  60 H60           -0.7652    -2.6976    -3.0253 H       
  61 H61           -1.1764    -1.0543    -2.4589 H       
  62 H62           -1.0344    -6.6072    -1.4700 H       
  63 H63           -2.7682    -6.5911    -1.0674 H       
  64 H64           -0.8521    -8.0684    -5.9730 H       
  65 H65           -3.1083    -8.9764    -6.3537 H       
  66 H66           -4.8635    -8.6678    -4.6564 H       
  67 H67           -4.3641    -7.4620    -2.5693 H       
  68 H68            0.4406    -7.0309    -5.8177 H       
  69 H69            2.4566    -5.9786    -3.7816 H       
  70 H70            2.7564    -6.1950    -5.5228 H       
  71 H71            1.5676    -4.9924    -4.9672 H       
  72 H72            0.7197    -9.1694    -4.5939 H       
  73 H73            2.2613    -8.6342    -5.3048 H       
  74 H74            1.9614    -8.4178    -3.5637 H       
@<TRIPOS>BOND
   1    1    2 ar
   2    1   10 ar
   3    2    3 ar
   4    2   41 1
   5    3    4 ar
   6    3   42 1
   7    4    5 ar
   8    4   43 1
   9    5    6 ar
  10    5   10 ar
  11    6    7 ar
  12    6   44 1
  13    7    8 ar
  14    7   45 1
  15    8    9 ar
  16    8   46 1
  17    9   10 ar
  18    9   11 1
  19   11   12 2
  20   11   13 2
  21   11   14 am
  22   14   15 1
  23   14   47 1
  24   15   16 ar
  25   15   20 ar
  26   16   17 ar
  27   16   48 1
  28   17   18 ar
  29   17   49 1
  30   18   19 ar
  31   18   21 1
  32   19   20 ar
  33   19   50 1
  34   20   51 1
  35   21   22 2
  36   21   23 am
  37   23   24 1
  38   23   29 1
  39   24   25 1
  40   24   52 1
  41   24   53 1
  42   25   26 1
  43   25   54 1
  44   25   55 1
  45   26   27 1
  46   26   30 1
  47   27   28 1
  48   27   56 1
  49   27   57 1
  50   28   29 1
  51   28   58 1
  52   28   59 1
  53   29   60 1
  54   29   61 1
  55   30   31 1
  56   30   62 1
  57   30   63 1
  58   31   32 ar
  59   31   36 ar
  60   32   33 ar
  61   32   37 1
  62   33   34 ar
  63   33   64 1
  64   34   35 ar
  65   34   65 1
  66   35   36 ar
  67   35   66 1
  68   36   67 1
  69   37   38 1
  70   38   39 1
  71   38   40 1
  72   38   68 1
  73   39   69 1
  74   39   70 1
  75   39   71 1
  76   40   72 1
  77   40   73 1
  78   40   74 1

#	End of record

