#	Name: ASD01470023
#	Creating user name:	WinNT
#	Creation time:	15. 06. 2019 19:21

#	Modifying user name:	WinNT
#	Modification time:	15. 06. 2019 19:21

#	Program:	/corina/corina34_cracker 3.40 0067  02.08.2006

@<TRIPOS>MOLECULE
ASD01470023
  80   85    0    0    0
SMALL
NO_CHARGES


@<TRIPOS>ATOM
   1 N1            -1.7084     1.4519     0.5788 N.am    
   2 C2            -0.3772     1.0222     0.1593 C.3     
   3 C3             0.1840    -0.0306     1.1255 C.3     
   4 C4            -0.2757    -1.4346     0.7644 C.3     
   5 C5            -1.6532    -1.4222     0.1224 C.3     
   6 N6            -2.6147    -0.7122     0.9669 N.am    
   7 C7            -2.6571     0.6311     1.0005 C.2     
   8 O8            -3.6653     1.1391     1.4519 O.2     
   9 C9            -3.5465    -1.4798     1.7968 C.3     
  10 C10           -2.0112     2.8846     0.5356 C.3     
  11 C11           -1.7343     3.4974     1.8842 C.ar    
  12 C12           -2.9712    -1.6414     3.1802 C.ar    
  13 C13           -3.1113    -0.6359     4.0922 C.ar    
  14 C14           -2.5770    -0.7872     5.3767 C.ar    
  15 C15           -1.9006    -1.9752     5.7144 C.ar    
  16 C16           -1.7735    -2.9842     4.7627 C.ar    
  17 C17           -2.3078    -2.8152     3.5170 C.ar    
  18 C18           -0.4524     3.9011     2.2091 C.ar    
  19 C19           -0.1940     4.4645     3.4455 C.ar    
  20 C20           -1.2161     4.6256     4.3599 C.ar    
  21 C21           -2.5053     4.2210     4.0366 C.ar    
  22 C22           -2.7623     3.6605     2.7921 C.ar    
  23 C23           -2.5417     0.0571     6.5664 C.2     
  24 N24           -1.9026    -0.5928     7.4966 N.2     
  25 N25           -1.4934    -1.8410     7.0159 N.pl3   
  26 C26           -0.4605     0.4230    -1.2460 C.3     
  27 O27            1.6117     0.0154     1.0840 O.3     
  28 C28            0.3839     1.2388    -2.1908 C.ar    
  29 C29            1.6854     0.8581    -2.4589 C.ar    
  30 C30            2.4599     1.6064    -3.3255 C.ar    
  31 C31            1.9328     2.7353    -3.9243 C.ar    
  32 C32            0.6309     3.1156    -3.6569 C.ar    
  33 C33           -0.1450     2.3648    -2.7937 C.ar    
  34 C34           -2.1277    -2.8626    -0.0801 C.3     
  35 O35           -0.3204    -2.2308     1.9502 O.3     
  36 C36           -1.2167    -3.5588    -1.0580 C.ar    
  37 C37           -0.0710    -4.1879    -0.6079 C.ar    
  38 C38            0.7647    -4.8266    -1.5049 C.ar    
  39 C39            0.4545    -4.8365    -2.8520 C.ar    
  40 C40           -0.6917    -4.2081    -3.3020 C.ar    
  41 C41           -1.5296    -3.5732    -2.4044 C.ar    
  42 C42           -0.9334     5.2390     5.7070 C.3     
  43 N43           -3.5415     4.3820     4.9593 N.pl3   
  44 H44            0.2894     1.8845     0.1412 H       
  45 H45           -0.1504     0.2025     2.1364 H       
  46 H46            0.4379    -1.8750     0.0680 H       
  47 H47           -1.5930    -0.9274    -0.8470 H       
  48 H48           -4.4980    -0.9516     1.8584 H       
  49 H49           -3.7046    -2.4623     1.3520 H       
  50 H50           -1.3866     3.3654    -0.2172 H       
  51 H51           -3.0615     3.0264     0.2808 H       
  52 H52           -3.6315     0.2718     3.8239 H       
  53 H53           -1.2565    -3.8996     5.0101 H       
  54 H54           -2.2072    -3.6004     2.7824 H       
  55 H55            0.3489     3.7760     1.4960 H       
  56 H56            0.8085     4.7784     3.6963 H       
  57 H57           -3.7634     3.3449     2.5377 H       
  58 H58           -2.9693     1.0446     6.6590 H       
  59 H59           -1.0007    -2.5053     7.5228 H       
  60 H60           -0.0944    -0.6034    -1.2257 H       
  61 H61           -1.4966     0.4326    -1.5843 H       
  62 H62            2.0429    -0.6222     1.6692 H       
  63 H63            2.0973    -0.0239    -1.9910 H       
  64 H64            3.4770     1.3093    -3.5344 H       
  65 H65            2.5381     3.3204    -4.6008 H       
  66 H66            0.2192     3.9977    -4.1245 H       
  67 H67           -1.1621     2.6619    -2.5848 H       
  68 H68           -2.1073    -3.3894     0.8739 H       
  69 H69           -3.1452    -2.8584    -0.4711 H       
  70 H70            0.5311    -2.3127     2.4012 H       
  71 H71            0.1713    -4.1802     0.4445 H       
  72 H72            1.6601    -5.3175    -1.1534 H       
  73 H73            1.1078    -5.3348    -3.5529 H       
  74 H74           -0.9338    -4.2156    -4.3545 H       
  75 H75           -2.4251    -3.0823    -2.7560 H       
  76 H76           -1.0615     6.3199     5.6481 H       
  77 H77           -1.6247     4.8309     6.4444 H       
  78 H78            0.0903     5.0100     6.0029 H       
  79 H79           -3.3786     4.8462     5.7953 H       
  80 H80           -4.4239     4.0297     4.7640 H       
@<TRIPOS>BOND
   1    1    2 1
   2    1   10 1
   3    1    7 am
   4    2    3 1
   5    2   26 1
   6    2   44 1
   7    3    4 1
   8    3   27 1
   9    3   45 1
  10    4    5 1
  11    4   35 1
  12    4   46 1
  13    5    6 1
  14    5   34 1
  15    5   47 1
  16    6    7 am
  17    6    9 1
  18    7    8 2
  19    9   12 1
  20    9   48 1
  21    9   49 1
  22   10   11 1
  23   10   50 1
  24   10   51 1
  25   11   18 ar
  26   11   22 ar
  27   12   13 ar
  28   12   17 ar
  29   13   14 ar
  30   13   52 1
  31   14   15 ar
  32   14   23 1
  33   15   16 ar
  34   15   25 1
  35   16   17 ar
  36   16   53 1
  37   17   54 1
  38   18   19 ar
  39   18   55 1
  40   19   20 ar
  41   19   56 1
  42   20   21 ar
  43   20   42 1
  44   21   22 ar
  45   21   43 1
  46   22   57 1
  47   23   24 2
  48   23   58 1
  49   24   25 1
  50   25   59 1
  51   26   28 1
  52   26   60 1
  53   26   61 1
  54   27   62 1
  55   28   29 ar
  56   28   33 ar
  57   29   30 ar
  58   29   63 1
  59   30   31 ar
  60   30   64 1
  61   31   32 ar
  62   31   65 1
  63   32   33 ar
  64   32   66 1
  65   33   67 1
  66   34   36 1
  67   34   68 1
  68   34   69 1
  69   35   70 1
  70   36   37 ar
  71   36   41 ar
  72   37   38 ar
  73   37   71 1
  74   38   39 ar
  75   38   72 1
  76   39   40 ar
  77   39   73 1
  78   40   41 ar
  79   40   74 1
  80   41   75 1
  81   42   76 1
  82   42   77 1
  83   42   78 1
  84   43   79 1
  85   43   80 1

#	End of record

