#	Name: ASD01814623
#	Creating user name:	WinNT
#	Creation time:	15. 06. 2019 19:32

#	Modifying user name:	WinNT
#	Modification time:	15. 06. 2019 19:32

#	Program:	/corina/corina34_cracker 3.40 0067  02.08.2006

@<TRIPOS>MOLECULE
ASD01814623
  54   57    0    0    0
SMALL
NO_CHARGES


@<TRIPOS>ATOM
   1 C1            -0.0169     1.3972     0.0097 C.2     
   2 C2             0.0021    -0.0041     0.0020 C.2     
   3 C3             1.1986    -0.6593    -0.0129 C.2     
   4 C4             2.3918     0.0821    -0.0204 C.2     
   5 N5             2.3437     1.4497    -0.0122 N.am    
   6 C6             1.1421     2.0937     0.0024 C.2     
   7 C7             3.6227    -0.5889    -0.0356 C.2     
   8 C8             4.7877     0.1218    -0.0425 C.2     
   9 C9             4.7345     1.5280    -0.0346 C.2     
  10 C10            3.4812     2.1736    -0.0189 C.2     
  11 O11            3.4258     3.3917    -0.0123 O.2     
  12 C12            5.9703     2.3140    -0.0413 C.2     
  13 O13            5.9124     3.6618    -0.0337 O.3     
  14 O14            7.0487     1.7516    -0.0537 O.2     
  15 C15            3.6593    -2.0954    -0.0439 C.3     
  16 N16            3.7787    -2.5747    -1.4274 N.3     
  17 C17            4.0544    -4.0143    -1.4628 C.3     
  18 C18            4.0762    -4.5128    -2.8843 C.ar    
  19 C19            3.5246    -3.7860    -3.9184 C.ar    
  20 C20            2.8737    -2.4467    -3.6845 C.3     
  21 C21            2.5625    -2.2700    -2.1979 C.3     
  22 C22            4.6714    -5.7391    -3.1428 C.ar    
  23 C23            4.7131    -6.2395    -4.4320 C.ar    
  24 C24            4.1537    -5.5069    -5.4746 C.ar    
  25 C25            3.5626    -4.2837    -5.2123 C.ar    
  26 C26            5.4125    -4.2846    -0.8120 C.3     
  27 O27            5.2985    -7.4418    -4.6793 O.3     
  28 C28            5.8517    -8.1365    -3.5598 C.3     
  29 O29            4.1883    -5.9907    -6.7452 O.3     
  30 C30            3.5941    -5.1831    -7.7633 C.3     
  31 H31           -0.9605     1.9226     0.0170 H       
  32 H32           -0.9233    -0.5609     0.0082 H       
  33 H33            1.2282    -1.7389    -0.0187 H       
  34 H34            1.1156     3.1733     0.0087 H       
  35 H35            5.7393    -0.3889    -0.0536 H       
  36 H36            6.7544     4.1373    -0.0385 H       
  37 H37            4.5153    -2.4412     0.5356 H       
  38 H38            2.7412    -2.4836     0.3971 H       
  39 H39            3.2789    -4.5428    -0.9082 H       
  40 H40            3.5484    -1.6547    -4.0096 H       
  41 H41            1.9481    -2.3892    -4.2572 H       
  42 H42            1.7639    -2.9525    -1.9073 H       
  43 H43            2.2566    -1.2413    -2.0075 H       
  44 H44            5.1051    -6.3065    -2.3327 H       
  45 H45            3.1273    -3.7136    -6.0197 H       
  46 H46            5.3943    -3.9416     0.2224 H       
  47 H47            5.6207    -5.3542    -0.8366 H       
  48 H48            6.1898    -3.7504    -1.3584 H       
  49 H49            6.2862    -9.0782    -3.8951 H       
  50 H50            6.6256    -7.5233    -3.0979 H       
  51 H51            5.0654    -8.3377    -2.8323 H       
  52 H52            2.5388    -5.0307    -7.5365 H       
  53 H53            4.1000    -4.2185    -7.8033 H       
  54 H54            3.6900    -5.6840    -8.7266 H       
@<TRIPOS>BOND
   1    1    2 1
   2    1    6 2
   3    1   31 1
   4    2    3 2
   5    2   32 1
   6    3    4 1
   7    3   33 1
   8    4    5 1
   9    4    7 2
  10    5    6 1
  11    5   10 am
  12    6   34 1
  13    7    8 1
  14    7   15 1
  15    8    9 2
  16    8   35 1
  17    9   10 1
  18    9   12 1
  19   10   11 2
  20   12   13 1
  21   12   14 2
  22   13   36 1
  23   15   16 1
  24   15   37 1
  25   15   38 1
  26   16   17 1
  27   16   21 1
  28   17   18 1
  29   17   26 1
  30   17   39 1
  31   18   19 ar
  32   18   22 ar
  33   19   20 1
  34   19   25 ar
  35   20   21 1
  36   20   40 1
  37   20   41 1
  38   21   42 1
  39   21   43 1
  40   22   23 ar
  41   22   44 1
  42   23   24 ar
  43   23   27 1
  44   24   25 ar
  45   24   29 1
  46   25   45 1
  47   26   46 1
  48   26   47 1
  49   26   48 1
  50   27   28 1
  51   28   49 1
  52   28   50 1
  53   28   51 1
  54   29   30 1
  55   30   52 1
  56   30   53 1
  57   30   54 1

#	End of record

