#	Name: ASD03330518
#	Creating user name:	WinNT
#	Creation time:	15. 06. 2019 20:37

#	Modifying user name:	WinNT
#	Modification time:	15. 06. 2019 20:37

#	Program:	/corina/corina34_cracker 3.40 0067  02.08.2006

@<TRIPOS>MOLECULE
ASD03330518
  59   60    0    0    0
SMALL
NO_CHARGES


@<TRIPOS>ATOM
   1 C1            -0.2665     2.0927    -0.6969 C.3     
   2 N2            -0.1054     0.6555    -0.4353 N.3     
   3 C3             0.3521    -0.0567    -1.6422 C.3     
   4 C4             1.5393     0.6854    -2.1990 C.2     
   5 N5             1.8736     1.9528    -1.8408 N.pl3   
   6 C6             1.1102     2.7463    -0.8728 C.3     
   7 C7             2.4554     0.2724    -3.1077 C.2     
   8 N8             3.3366     1.2938    -3.2874 N.2     
   9 C9             2.9853     2.2950    -2.5277 C.2     
  10 C10            3.7026     3.6169    -2.4323 C.3     
  11 C11            2.4916    -1.0397    -3.7767 C.2     
  12 O12            1.6412    -1.8729    -3.5277 O.2     
  13 C13            3.5028    -2.6215    -5.3299 C.3     
  14 N14            3.4669    -1.3168    -4.6646 N.am    
  15 C15            4.2307    -3.6290    -4.4378 C.3     
  16 C16           -1.3508     0.0714     0.0803 C.3     
  17 C17            3.4239    -3.8524    -3.1571 C.3     
  18 C18            4.3806    -4.9562    -5.1841 C.3     
  19 C19            5.6156    -3.0860    -4.0798 C.3     
  20 C20            4.2308    -2.4958    -6.6434 C.2     
  21 N21            4.2248    -3.5212    -7.5181 N.am    
  22 O22            4.8221    -1.4719    -6.9134 O.2     
  23 C23            4.9986    -3.4302    -8.7587 C.3     
  24 C24            1.6671     4.8911    -3.1223 C.3     
  25 C25            3.1262     4.5857    -3.4669 C.3     
  26 C26            3.9354     5.8842    -3.4560 C.3     
  27 H27           -0.8526     2.2322    -1.6052 H       
  28 H28           -0.7839     2.5579     0.1421 H       
  29 H29            0.6429    -1.0743    -1.3814 H       
  30 H30           -0.4481    -0.0797    -2.3819 H       
  31 H31            0.9894     3.7636    -1.2450 H       
  32 H32            1.6338     2.7636     0.0830 H       
  33 H33            3.5695     4.0312    -1.4329 H       
  34 H34            4.7650     3.4686    -2.6257 H       
  35 H35            2.4844    -2.9654    -5.5104 H       
  36 H36            4.1451    -0.6523    -4.8632 H       
  37 H37           -2.1618     0.2677    -0.6210 H       
  38 H38           -1.2255    -1.0049     0.1989 H       
  39 H39           -1.5891     0.5180     1.0456 H       
  40 H40            2.4373    -4.2393    -3.4121 H       
  41 H41            3.9425    -4.5702    -2.5215 H       
  42 H42            3.3172    -2.9069    -2.6254 H       
  43 H43            4.8572    -4.7790    -6.1483 H       
  44 H44            4.9948    -5.6371    -4.5949 H       
  45 H45            3.3966    -5.3979    -5.3410 H       
  46 H46            5.5089    -2.1405    -3.5481 H       
  47 H47            6.1342    -3.8037    -3.4442 H       
  48 H48            6.1904    -2.9268    -4.9922 H       
  49 H49            3.7081    -4.3193    -7.3261 H       
  50 H50            4.6463    -2.5817    -9.3453 H       
  51 H51            6.0533    -3.2940    -8.5199 H       
  52 H52            4.8718    -4.3473    -9.3340 H       
  53 H53            1.2565     5.5812    -3.8593 H       
  54 H54            1.0907     3.9660    -3.1300 H       
  55 H55            1.6147     5.3435    -2.1320 H       
  56 H56            3.1786     4.1332    -4.4571 H       
  57 H57            3.8829     6.3366    -2.4657 H       
  58 H58            4.9748     5.6666    -3.7014 H       
  59 H59            3.5248     6.5743    -4.1930 H       
@<TRIPOS>BOND
   1    1    2 1
   2    1    6 1
   3    1   27 1
   4    1   28 1
   5    2    3 1
   6    2   16 1
   7    3    4 1
   8    3   29 1
   9    3   30 1
  10    4    5 1
  11    4    7 2
  12    5    6 1
  13    5    9 1
  14    6   31 1
  15    6   32 1
  16    7    8 1
  17    7   11 1
  18    8    9 2
  19    9   10 1
  20   10   25 1
  21   10   33 1
  22   10   34 1
  23   11   12 2
  24   11   14 am
  25   13   14 1
  26   13   15 1
  27   13   20 1
  28   13   35 1
  29   14   36 1
  30   15   17 1
  31   15   18 1
  32   15   19 1
  33   16   37 1
  34   16   38 1
  35   16   39 1
  36   17   40 1
  37   17   41 1
  38   17   42 1
  39   18   43 1
  40   18   44 1
  41   18   45 1
  42   19   46 1
  43   19   47 1
  44   19   48 1
  45   20   21 am
  46   20   22 2
  47   21   23 1
  48   21   49 1
  49   23   50 1
  50   23   51 1
  51   23   52 1
  52   24   25 1
  53   24   53 1
  54   24   54 1
  55   24   55 1
  56   25   26 1
  57   25   56 1
  58   26   57 1
  59   26   58 1
  60   26   59 1

#	End of record

