#	Name: ASD03320199
#	Creating user name:	WinNT
#	Creation time:	15. 06. 2019 20:36

#	Modifying user name:	WinNT
#	Modification time:	15. 06. 2019 20:36

#	Program:	/corina/corina34_cracker 3.40 0067  02.08.2006

@<TRIPOS>MOLECULE
ASD03320199
  37   39    0    0    0
SMALL
NO_CHARGES


@<TRIPOS>ATOM
   1 C1            -0.0073     1.3430    -0.1946 C.ar    
   2 C2             0.0219    -0.0350     0.0266 C.ar    
   3 N3            -1.0905    -0.7400     0.0435 N.ar    
   4 C4            -2.2724    -0.1855    -0.1452 C.ar    
   5 C5            -2.3920     1.1869    -0.3733 C.ar    
   6 C6            -1.2408     1.9724    -0.3940 C.ar    
   7 C7             1.2456     2.1264    -0.2118 C.2     
   8 O8             1.2098     3.3261    -0.4054 O.2     
   9 N9             2.4279     1.5108    -0.0130 N.am    
  10 C10            3.6217     2.2342    -0.1262 C.ar    
  11 C11           -3.7261     1.8011    -0.5854 C.ar    
  12 C12            3.6730     3.5590     0.2867 C.ar    
  13 C13            4.8505     4.2715     0.1752 C.ar    
  14 C14            5.9820     3.6642    -0.3496 C.ar    
  15 C15            5.9314     2.3409    -0.7628 C.ar    
  16 C16            4.7562     1.6253    -0.6462 C.ar    
  17 O17            7.1411     4.3666    -0.4595 O.3     
  18 C18            8.2668     3.6788    -1.0087 C.3     
  19 F19            7.9636     3.2486    -2.3049 F       
  20 F20            9.3667     4.5425    -1.0493 F       
  21 F21            8.5724     2.5719    -0.2095 F       
  22 C22           -4.6248     1.2639    -1.5103 C.ar    
  23 N23           -5.8030     1.8422    -1.6681 N.ar    
  24 C24           -6.1335     2.9094    -0.9682 C.ar    
  25 N25           -5.3155     3.4478    -0.0857 N.ar    
  26 C26           -4.1204     2.9291     0.1385 C.ar    
  27 Cl27          -3.6981    -1.1752    -0.1100 Cl      
  28 H28            0.9689    -0.5293     0.1857 H       
  29 H29           -1.2987     3.0369    -0.5675 H       
  30 H30            2.4521     0.5668     0.2085 H       
  31 H31            2.7920     4.0321     0.6947 H       
  32 H32            4.8906     5.3019     0.4963 H       
  33 H33            6.8125     1.8690    -1.1719 H       
  34 H34            4.7170     0.5951    -0.9679 H       
  35 H35           -4.3610     0.3900    -2.0876 H       
  36 H36           -7.1043     3.3566    -1.1229 H       
  37 H37           -3.4557     3.3757     0.8631 H       
@<TRIPOS>BOND
   1    1    2 ar
   2    1    7 1
   3    1    6 ar
   4    2    3 ar
   5    2   28 1
   6    3    4 ar
   7    4    5 ar
   8    4   27 1
   9    5    6 ar
  10    5   11 1
  11    6   29 1
  12    7    8 2
  13    7    9 am
  14    9   10 1
  15    9   30 1
  16   10   12 ar
  17   10   16 ar
  18   11   22 ar
  19   11   26 ar
  20   12   13 ar
  21   12   31 1
  22   13   14 ar
  23   13   32 1
  24   14   15 ar
  25   14   17 1
  26   15   16 ar
  27   15   33 1
  28   16   34 1
  29   17   18 1
  30   18   19 1
  31   18   20 1
  32   18   21 1
  33   22   23 ar
  34   22   35 1
  35   23   24 ar
  36   24   25 ar
  37   24   36 1
  38   25   26 ar
  39   26   37 1

#	End of record

