#	Name: ASD01885928
#	Creating user name:	WinNT
#	Creation time:	15. 06. 2019 19:50

#	Modifying user name:	WinNT
#	Modification time:	15. 06. 2019 19:50

#	Program:	/corina/corina34_cracker 3.40 0067  02.08.2006

@<TRIPOS>MOLECULE
ASD01885928
  58   61    0    0    0
SMALL
NO_CHARGES


@<TRIPOS>ATOM
   1 C1            -0.0170     1.4037     0.0098 C.ar    
   2 C2            -1.2665     2.0740     0.0193 C.ar    
   3 C3            -1.2874     3.4920     0.0272 C.ar    
   4 C4            -0.0700     4.1597     0.0250 C.ar    
   5 C5             1.1199     3.4234     0.0154 C.ar    
   6 N6             1.1178     2.1038     0.0027 N.ar    
   7 C7             0.0021    -0.0041     0.0020 C.ar    
   8 C8            -1.1700    -0.6951     0.0090 C.ar    
   9 C9            -2.3952    -0.0320     0.0237 C.ar    
  10 C10           -2.4530     1.3298     0.0204 C.ar    
  11 C11           -2.5666     4.2367     0.0368 C.ar    
  12 C12           -3.1763     4.5952    -1.1663 C.ar    
  13 C13           -4.3676     5.2882    -1.1535 C.ar    
  14 C14           -3.1687     4.5769     1.2490 C.ar    
  15 C15            2.4157     4.1442     0.0060 C.2     
  16 N16            3.5718     3.4518    -0.0152 N.am    
  17 O17            2.4352     5.3590     0.0175 O.2     
  18 C18           -1.1424    -2.2019     0.0132 C.3     
  19 C19           -4.9614     5.6297     0.0549 C.ar    
  20 C20           -4.3600     5.2699     1.2542 C.ar    
  21 O21           -6.1354     6.3127     0.0638 O.3     
  22 C22           -1.1528    -2.7162    -1.4277 C.3     
  23 C23           -6.6907     6.6317     1.3412 C.3     
  24 C24           -1.1251    -4.2229    -1.4235 C.ar    
  25 C25           -2.3023    -4.9543    -1.4052 C.ar    
  26 N26           -2.2388    -6.2761    -1.4019 N.ar    
  27 C27           -1.0760    -6.8963    -1.4159 C.ar    
  28 N28            0.0632    -6.2339    -1.4335 N.ar    
  29 C29            0.0780    -4.9107    -1.4436 C.ar    
  30 C30           -1.0484    -8.4031    -1.4111 C.3     
  31 C31           -2.5173     4.1866     2.5507 C.3     
  32 C32           -2.5327     4.2255    -2.4778 C.3     
  33 H33           -0.0416     5.2393     0.0305 H       
  34 H34            0.9434    -0.5334    -0.0098 H       
  35 H35           -3.3109    -0.6043     0.0376 H       
  36 H36           -3.4089     1.8323     0.0276 H       
  37 H37           -4.8398     5.5662    -2.0841 H       
  38 H38            3.5562     2.4820    -0.0243 H       
  39 H39            4.4195     3.9233    -0.0213 H       
  40 H40           -0.2389    -2.5473     0.5158 H       
  41 H41           -2.0184    -2.5799     0.5402 H       
  42 H42           -4.8245     5.5372     2.1919 H       
  43 H43           -2.0562    -2.3708    -1.9303 H       
  44 H44           -0.2767    -2.3382    -1.9547 H       
  45 H45           -5.9877     7.2505     1.8987 H       
  46 H46           -7.6254     7.1758     1.2054 H       
  47 H47           -6.8827     5.7120     1.8938 H       
  48 H48           -3.2584    -4.4522    -1.3933 H       
  49 H49            1.0151    -4.3739    -1.4581 H       
  50 H50           -1.0559    -8.7699    -2.4375 H       
  51 H51           -0.1448    -8.7483    -0.9086 H       
  52 H52           -1.9243    -8.7809    -0.8838 H       
  53 H53           -1.8432     4.9806     2.8721 H       
  54 H54           -3.2848     4.0324     3.3092 H       
  55 H55           -1.9528     3.2645     2.4123 H       
  56 H56           -2.8939     3.2479    -2.7970 H       
  57 H57           -2.7882     4.9710    -3.2308 H       
  58 H58           -1.4503     4.1902    -2.3541 H       
@<TRIPOS>BOND
   1    1    7 ar
   2    1    6 ar
   3    1    2 ar
   4    2    3 ar
   5    2   10 ar
   6    3   11 1
   7    3    4 ar
   8    4    5 ar
   9    4   33 1
  10    5   15 1
  11    5    6 ar
  12    7    8 ar
  13    7   34 1
  14    8    9 ar
  15    8   18 1
  16    9   10 ar
  17    9   35 1
  18   10   36 1
  19   11   12 ar
  20   11   14 ar
  21   12   13 ar
  22   12   32 1
  23   13   19 ar
  24   13   37 1
  25   14   31 1
  26   14   20 ar
  27   15   16 am
  28   15   17 2
  29   16   38 1
  30   16   39 1
  31   18   22 1
  32   18   40 1
  33   18   41 1
  34   19   20 ar
  35   19   21 1
  36   20   42 1
  37   21   23 1
  38   22   24 1
  39   22   43 1
  40   22   44 1
  41   23   45 1
  42   23   46 1
  43   23   47 1
  44   24   25 ar
  45   24   29 ar
  46   25   26 ar
  47   25   48 1
  48   26   27 ar
  49   27   28 ar
  50   27   30 1
  51   28   29 ar
  52   29   49 1
  53   30   50 1
  54   30   51 1
  55   30   52 1
  56   31   53 1
  57   31   54 1
  58   31   55 1
  59   32   56 1
  60   32   57 1
  61   32   58 1

#	End of record

