#	Name: ASD01884213
#	Creating user name:	WinNT
#	Creation time:	15. 06. 2019 19:47

#	Modifying user name:	WinNT
#	Modification time:	15. 06. 2019 19:47

#	Program:	/corina/corina34_cracker 3.40 0067  02.08.2006

@<TRIPOS>MOLECULE
ASD01884213
  35   38    0    0    0
SMALL
NO_CHARGES


@<TRIPOS>ATOM
   1 C1            -0.0168     1.3908     0.0097 C.ar    
   2 C2             0.0021    -0.0041     0.0020 C.ar    
   3 C3            -1.1687    -0.7210     0.0094 C.ar    
   4 C4            -2.4131    -0.0704     0.0252 C.ar    
   5 C5            -2.4159     1.3264     0.0332 C.ar    
   6 C6            -1.2419     2.0535     0.0308 C.ar    
   7 C7             1.2524     2.1591     0.0017 C.ar    
   8 N8            -3.6710    -0.6449     0.0342 N.am    
   9 C9            -4.7414     0.1550     0.0492 C.2     
  10 S10           -4.1169     1.8127     0.0526 S.3     
  11 O11           -5.9096    -0.1865     0.0587 O.2     
  12 C12           -3.8270    -2.1015     0.0270 C.3     
  13 C13           -3.8670    -2.6173     1.4668 C.3     
  14 C14           -4.1433    -4.1076     1.6760 C.3     
  15 C15           -2.7392    -3.5489     1.9151 C.3     
  16 C16            2.4747     1.4900    -0.0136 C.ar    
  17 C17            3.6523     2.2097    -0.0209 C.ar    
  18 C18            3.6208     3.5926    -0.0131 C.ar    
  19 C19            2.4103     4.2619     0.0025 C.ar    
  20 C20            1.2265     3.5523     0.0037 C.ar    
  21 H21            0.9478    -0.5255    -0.0102 H       
  22 H22           -1.1321    -1.8003     0.0025 H       
  23 H23           -1.2735     3.1330     0.0375 H       
  24 H24           -4.7557    -2.3649    -0.4793 H       
  25 H25           -2.9859    -2.5544    -0.4980 H       
  26 H26           -4.2693    -1.9226     2.2041 H       
  27 H27           -4.7271    -4.3932     2.5510 H       
  28 H28           -4.2966    -4.7205     0.7878 H       
  29 H29           -1.9687    -3.7944     1.1842 H       
  30 H30           -2.3991    -3.4671     2.9475 H       
  31 H31            2.5005     0.4104    -0.0193 H       
  32 H32            4.6002     1.6923    -0.0324 H       
  33 H33            4.5447     4.1518    -0.0189 H       
  34 H34            2.3915     5.3417     0.0089 H       
  35 H35            0.2820     4.0759     0.0159 H       
@<TRIPOS>BOND
   1    1    2 ar
   2    1    7 1
   3    1    6 ar
   4    2    3 ar
   5    2   21 1
   6    3    4 ar
   7    3   22 1
   8    4    5 ar
   9    4    8 1
  10    5    6 ar
  11    5   10 1
  12    6   23 1
  13    7   16 ar
  14    7   20 ar
  15    8    9 am
  16    8   12 1
  17    9   10 1
  18    9   11 2
  19   12   13 1
  20   12   24 1
  21   12   25 1
  22   13   14 1
  23   13   15 1
  24   13   26 1
  25   14   15 1
  26   14   27 1
  27   14   28 1
  28   15   29 1
  29   15   30 1
  30   16   17 ar
  31   16   31 1
  32   17   18 ar
  33   17   32 1
  34   18   19 ar
  35   18   33 1
  36   19   20 ar
  37   19   34 1
  38   20   35 1

#	End of record

