#	Name: ASD02560148
#	Creating user name:	WinNT
#	Creation time:	15. 06. 2019 20:24

#	Modifying user name:	WinNT
#	Modification time:	15. 06. 2019 20:24

#	Program:	/corina/corina34_cracker 3.40 0067  02.08.2006

@<TRIPOS>MOLECULE
ASD02560148
  83   85    0    0    0
SMALL
NO_CHARGES


@<TRIPOS>ATOM
   1 N1             2.6660    -0.2695     1.5418 N.am    
   2 C2             1.3699     0.0473     1.7366 C.2     
   3 C3             3.5129     0.6333     1.0133 C.2     
   4 N4             3.0876     1.8629     0.6708 N.am    
   5 C5             1.7803     2.2239     0.8527 C.2     
   6 C6             0.9090     1.3375     1.3801 C.2     
   7 O7             0.6029    -0.7691     2.2143 O.2     
   8 C8            -0.5344     1.7172     1.5884 C.3     
   9 O9             4.6790     0.3336     0.8434 O.2     
  10 C10            4.0308     2.8222     0.0994 C.3     
  11 O11            3.8653     4.1165     0.7263 O.3     
  12 C12            4.4793     5.0451    -0.2005 C.3     
  13 C13            3.9977     4.5695    -1.5821 C.3     
  14 C14            3.7051     3.0719    -1.3897 C.3     
  15 C15            3.9816     6.4625     0.0712 C.3     
  16 O16            4.4506     6.8950     1.3499 O.3     
  17 Si17           3.9803     8.4037     1.7534 Si      
  18 C18            4.6577     8.8367     3.4340 C.3     
  19 C19            6.1859     8.7708     3.4003 C.3     
  20 C20            4.2165    10.2520     3.8125 C.3     
  21 C21            4.1271     7.8430     4.4693 C.3     
  22 C22            4.6264     9.6137     0.4928 C.3     
  23 C23            2.1194     8.4839     1.7944 C.3     
  24 C24            2.7802     5.3142    -2.0254 C.2     
  25 C25            3.0334     6.2861    -2.8687 C.2     
  26 S26            4.7877     6.4565    -3.2609 Du      
  27 C27            5.0822     4.7792    -2.6376 C.3     
  28 N28            1.4850     5.0129    -1.5886 N.pl3   
  29 O29            5.8358     7.0647    -2.1266 O.3     
  30 O30            4.5111     7.9914    -3.8298 O.3     
  31 O31            4.5594     2.2918    -2.2221 O.3     
  32 Si32           3.7662     1.2611    -3.2062 Si      
  33 C33            2.7692     0.0670    -2.1810 C.3     
  34 C34            2.6266     2.2222    -4.3235 C.3     
  35 C35            4.9966     0.3166    -4.2381 C.3     
  36 C36            5.9325    -0.4727    -3.3205 C.3     
  37 C37            4.2524    -0.6503    -5.1613 C.3     
  38 C38            5.8154     1.2973    -5.0800 C.3     
  39 H39            2.9902    -1.1502     1.7872 H       
  40 H40            1.4471     3.2132     0.5758 H       
  41 H41           -1.1079     1.4691     0.6953 H       
  42 H42           -0.9349     1.1691     2.4412 H       
  43 H43           -0.6045     2.7881     1.7794 H       
  44 H44            5.0516     2.4748     0.2138 H       
  45 H45            5.5588     4.9934    -0.1332 H       
  46 H46            2.6624     2.8584    -1.5949 H       
  47 H47            4.3585     7.1340    -0.7002 H       
  48 H48            2.8917     6.4730     0.0613 H       
  49 H49            6.5639     9.4788     2.6627 H       
  50 H50            6.5822     9.0242     4.3836 H       
  51 H51            6.5002     7.7626     3.1306 H       
  52 H52            3.1277    10.2989     3.8365 H       
  53 H53            4.6128    10.5053     4.7958 H       
  54 H54            4.5945    10.9599     3.0750 H       
  55 H55            4.4414     6.8347     4.1996 H       
  56 H56            4.5234     8.0964     5.4526 H       
  57 H57            3.0383     7.8899     4.4933 H       
  58 H58            4.2300     9.3603    -0.4905 H       
  59 H59            4.3120    10.6219     0.7625 H       
  60 H60            5.7151     9.5667     0.4688 H       
  61 H61            1.7414     7.7760     2.5320 H       
  62 H62            1.8051     9.4922     2.0641 H       
  63 H63            1.7231     8.2306     0.8111 H       
  64 H64            2.2485     6.9199    -3.2836 H       
  65 H65            6.0681     4.7138    -2.1858 H       
  66 H66            4.9754     4.0551    -3.4403 H       
  67 H67            1.3309     4.2380    -1.0259 H       
  68 H68            0.7415     5.5790    -1.8487 H       
  69 H69            1.9814     0.6079    -1.6567 H       
  70 H70            2.3226    -0.6853    -2.8312 H       
  71 H71            3.4202    -0.4204    -1.4553 H       
  72 H72            3.2099     2.9208    -4.9233 H       
  73 H73            2.0964     1.5333    -4.9811 H       
  74 H74            1.9067     2.7747    -3.7197 H       
  75 H75            5.3492    -1.1713    -2.7207 H       
  76 H76            6.6524    -1.0252    -3.9243 H       
  77 H77            6.4627     0.2162    -2.6629 H       
  78 H78            3.5857    -0.0879    -5.8150 H       
  79 H79            4.9723    -1.2028    -5.7650 H       
  80 H80            3.6691    -1.3489    -4.5615 H       
  81 H81            6.3455     1.9862    -4.4224 H       
  82 H82            6.5353     0.7448    -5.6838 H       
  83 H83            5.1486     1.8596    -5.7337 H       
@<TRIPOS>BOND
   1    1    2 am
   2    1    3 am
   3    1   39 1
   4    2    7 2
   5    2    6 1
   6    3    4 am
   7    3    9 2
   8    4    5 1
   9    4   10 1
  10    5    6 2
  11    5   40 1
  12    6    8 1
  13    8   41 1
  14    8   42 1
  15    8   43 1
  16   10   11 1
  17   10   14 1
  18   10   44 1
  19   11   12 1
  20   12   13 1
  21   12   15 1
  22   12   45 1
  23   13   24 1
  24   13   27 1
  25   13   14 1
  26   14   31 1
  27   14   46 1
  28   15   16 1
  29   15   47 1
  30   15   48 1
  31   16   17 1
  32   17   18 1
  33   17   22 1
  34   17   23 1
  35   18   19 1
  36   18   20 1
  37   18   21 1
  38   19   49 1
  39   19   50 1
  40   19   51 1
  41   20   52 1
  42   20   53 1
  43   20   54 1
  44   21   55 1
  45   21   56 1
  46   21   57 1
  47   22   58 1
  48   22   59 1
  49   22   60 1
  50   23   61 1
  51   23   62 1
  52   23   63 1
  53   24   25 2
  54   24   28 1
  55   25   26 1
  56   25   64 1
  57   26   27 1
  58   26   29 1
  59   26   30 1
  60   27   65 1
  61   27   66 1
  62   28   67 1
  63   28   68 1
  64   31   32 1
  65   32   33 1
  66   32   34 1
  67   32   35 1
  68   33   69 1
  69   33   70 1
  70   33   71 1
  71   34   72 1
  72   34   73 1
  73   34   74 1
  74   35   36 1
  75   35   37 1
  76   35   38 1
  77   36   75 1
  78   36   76 1
  79   36   77 1
  80   37   78 1
  81   37   79 1
  82   37   80 1
  83   38   81 1
  84   38   82 1
  85   38   83 1

#	End of record

