#	Name: ASD01190148
#	Creating user name:	WinNT
#	Creation time:	15. 06. 2019 19:07

#	Modifying user name:	WinNT
#	Modification time:	15. 06. 2019 19:07

#	Program:	/corina/corina34_cracker 3.40 0067  02.08.2006

@<TRIPOS>MOLECULE
ASD01190148
  51   54    0    0    0
SMALL
NO_CHARGES


@<TRIPOS>ATOM
   1 N1             0.0042     1.7006     0.1101 N.pl3   
   2 N2            -0.9463     0.9614    -0.3378 N.2     
   3 C3            -0.5242     0.2534    -1.3666 C.2     
   4 C4             0.8342     0.5932    -1.5754 C.2     
   5 C5             1.1292     1.5096    -0.6226 C.2     
   6 C6            -1.2941    -0.6832    -2.1285 C.1     
   7 N7            -1.9049    -1.4262    -2.7330 N.1     
   8 C8             2.4582     2.1892    -0.4155 C.3     
   9 C9             3.1019     2.4750    -1.7738 C.3     
  10 O10            2.2604     3.4184     0.2859 O.3     
  11 N11            5.9274    -0.9451     2.7069 N.pl3   
  12 N12            6.5520     0.0777     3.4281 N.2     
  13 C13            6.0729     1.2352     3.0698 C.2     
  14 C14            5.0609     1.0018     2.0444 C.ar    
  15 C15            4.2222     1.8367     1.2977 C.ar    
  16 C16            3.3617     1.2911     0.3896 C.ar    
  17 C17            3.3104    -0.0846     0.2006 C.ar    
  18 C18            4.1191    -0.9200     0.9181 C.ar    
  19 C19            5.0073    -0.3923     1.8512 C.ar    
  20 C20            6.2012    -2.3132     2.8332 C.ar    
  21 C21            7.4962    -2.7421     3.0929 C.ar    
  22 C22            7.7639    -4.0912     3.2169 C.ar    
  23 C23            6.7420    -5.0162     3.0825 C.ar    
  24 C24            5.4499    -4.5905     2.8235 C.ar    
  25 C25            5.1769    -3.2420     2.7044 C.ar    
  26 F26            7.0061    -6.3355     3.2038 F       
  27 F27            2.1244     2.9250    -2.6677 F       
  28 F28            4.0864     3.4580    -1.6257 F       
  29 F29            3.6837     1.3034    -2.2699 F       
  30 C30           -0.1122     2.6210     1.2439 C.3     
  31 C31            0.4234     1.9442     2.5073 C.3     
  32 C32            0.3797     2.9336     3.6735 C.3     
  33 O33            0.9865     2.3412     4.8237 O.3     
  34 O34           -0.3842     0.8067     2.8171 O.3     
  35 Br35           1.9932    -0.0895    -2.9045 Br      
  36 H36            2.0879     3.3085     1.2311 H       
  37 H37            6.3711     2.1962     3.4621 H       
  38 H38            4.2555     2.9068     1.4393 H       
  39 H39            2.6227    -0.4985    -0.5219 H       
  40 H40            4.0691    -1.9875     0.7619 H       
  41 H41            8.2935    -2.0211     3.1974 H       
  42 H42            8.7710    -4.4252     3.4185 H       
  43 H43            4.6544    -5.3135     2.7187 H       
  44 H44            4.1682    -2.9102     2.5072 H       
  45 H45            0.4665     3.5221     1.0413 H       
  46 H46           -1.1592     2.8867     1.3902 H       
  47 H47            1.4520     1.6248     2.3401 H       
  48 H48            0.9224     3.8391     3.4022 H       
  49 H49           -0.6568     3.1847     3.8983 H       
  50 H50            0.9942     2.9135     5.6031 H       
  51 H51           -1.3142     1.0167     2.9784 H       
@<TRIPOS>BOND
   1    1    2 1
   2    1    5 1
   3    1   30 1
   4    2    3 2
   5    3    4 1
   6    3    6 1
   7    4    5 2
   8    4   35 1
   9    5    8 1
  10    6    7 3
  11    8    9 1
  12    8   10 1
  13    8   16 1
  14    9   27 1
  15    9   28 1
  16    9   29 1
  17   10   36 1
  18   11   12 1
  19   11   19 1
  20   11   20 1
  21   12   13 2
  22   13   14 1
  23   13   37 1
  24   14   15 ar
  25   14   19 ar
  26   15   16 ar
  27   15   38 1
  28   16   17 ar
  29   17   18 ar
  30   17   39 1
  31   18   19 ar
  32   18   40 1
  33   20   21 ar
  34   20   25 ar
  35   21   22 ar
  36   21   41 1
  37   22   23 ar
  38   22   42 1
  39   23   24 ar
  40   23   26 1
  41   24   25 ar
  42   24   43 1
  43   25   44 1
  44   30   31 1
  45   30   45 1
  46   30   46 1
  47   31   32 1
  48   31   34 1
  49   31   47 1
  50   32   33 1
  51   32   48 1
  52   32   49 1
  53   33   50 1
  54   34   51 1

#	End of record

