#	Name: ASD01148250
#	Creating user name:	WinNT
#	Creation time:	15. 06. 2019 19:02

#	Modifying user name:	WinNT
#	Modification time:	15. 06. 2019 19:02

#	Program:	/corina/corina34_cracker 3.40 0067  02.08.2006

@<TRIPOS>MOLECULE
ASD01148250
  46   49    0    0    0
SMALL
NO_CHARGES


@<TRIPOS>ATOM
   1 C1            -0.0167     1.3802     0.0096 C.ar    
   2 C2             0.0021    -0.0041     0.0020 C.ar    
   3 C3            -1.1879    -0.7115     0.0095 C.ar    
   4 C4            -2.3943    -0.0346     0.0246 C.ar    
   5 C5            -2.4118     1.3476     0.0318 C.ar    
   6 C6            -1.2242     2.0549     0.0305 C.ar    
   7 C7            -3.7266     2.0838     0.0472 C.3     
   8 O8            -4.7319     1.3302     0.7551 O.3     
   9 C9            -3.6325     3.3676     0.9059 C.3     
  10 C10           -4.1241     2.8947     2.2608 C.2     
  11 N11           -4.7189     1.7600     2.1020 N.2     
  12 C12           -3.9516     3.6090     3.5410 C.ar    
  13 C13           -4.4561     3.0583     4.7218 C.ar    
  14 C14           -3.2788     4.8331     3.5729 C.ar    
  15 C15           -3.1180     5.4992     4.7668 C.ar    
  16 C16           -3.6275     4.9512     5.9465 C.ar    
  17 C17           -4.2951     3.7246     5.9156 C.ar    
  18 C18           -3.4544     5.6662     7.2283 C.2     
  19 O19           -2.8687     6.7311     7.2561 O.2     
  20 N20           -3.9459     5.1376     8.3665 N.am    
  21 C21           -4.1861     2.4082    -1.3756 C.3     
  22 F22           -4.3286     1.2209    -2.1018 F       
  23 F23           -5.4146     3.0760    -1.3281 F       
  24 F24           -3.2355     3.2243    -1.9980 F       
  25 Cl25          -1.1662    -2.4473    -0.0006 Cl      
  26 Cl26           1.5167    -0.8522    -0.0175 Cl      
  27 Cl27           1.4745     2.2689     0.0002 Cl      
  28 C28           -3.7743     5.8464     9.6372 C.3     
  29 C29           -4.4098     5.0491    10.7469 C.2     
  30 C30           -3.7200     4.1984    11.5125 C.2     
  31 S31           -4.8373     3.4850    12.6732 S.3     
  32 C32           -6.1211     4.4016    12.0135 C.2     
  33 N33           -5.6903     5.1378    11.0454 N.2     
  34 H34           -3.3227    -0.5862     0.0305 H       
  35 H35           -1.2391     3.1348     0.0365 H       
  36 H36           -2.6017     3.7165     0.9685 H       
  37 H37           -4.2826     4.1472     0.5089 H       
  38 H38           -4.9725     2.1101     4.6980 H       
  39 H39           -2.8846     5.2566     2.6609 H       
  40 H40           -2.5977     6.4452     4.7916 H       
  41 H41           -4.6890     3.3011     6.8277 H       
  42 H42           -4.4133     4.2879     8.3444 H       
  43 H43           -2.7112     5.9716     9.8426 H       
  44 H44           -4.2500     6.8250     9.5744 H       
  45 H45           -2.6640     3.9856    11.4338 H       
  46 H46           -7.1435     4.3722    12.3601 H       
@<TRIPOS>BOND
   1    1    2 ar
   2    1   27 1
   3    1    6 ar
   4    2    3 ar
   5    2   26 1
   6    3    4 ar
   7    3   25 1
   8    4    5 ar
   9    4   34 1
  10    5    6 ar
  11    5    7 1
  12    6   35 1
  13    7    8 1
  14    7    9 1
  15    7   21 1
  16    8   11 1
  17    9   10 1
  18    9   36 1
  19    9   37 1
  20   10   11 2
  21   10   12 1
  22   12   13 ar
  23   12   14 ar
  24   13   17 ar
  25   13   38 1
  26   14   15 ar
  27   14   39 1
  28   15   16 ar
  29   15   40 1
  30   16   17 ar
  31   16   18 1
  32   17   41 1
  33   18   19 2
  34   18   20 am
  35   20   28 1
  36   20   42 1
  37   21   22 1
  38   21   23 1
  39   21   24 1
  40   28   29 1
  41   28   43 1
  42   28   44 1
  43   29   30 2
  44   29   33 1
  45   30   31 1
  46   30   45 1
  47   31   32 1
  48   32   33 2
  49   32   46 1

#	End of record

