#	Name: ASD03240456
#	Creating user name:	WinNT
#	Creation time:	15. 06. 2019 20:35

#	Modifying user name:	WinNT
#	Modification time:	15. 06. 2019 20:35

#	Program:	/corina/corina34_cracker 3.40 0067  02.08.2006

@<TRIPOS>MOLECULE
ASD03240456
  70   73    0    0    0
SMALL
NO_CHARGES


@<TRIPOS>ATOM
   1 C1             0.0291     1.4700     0.0795 C.ar    
   2 C2            -2.5556     0.3154     1.2586 C.ar    
   3 C3            -2.1627     1.6395     1.1851 C.ar    
   4 C4            -1.3326     2.1128     0.0198 C.3     
   5 C5            -3.3159    -0.1234     2.3237 C.ar    
   6 C6            -3.6875     0.7700     3.3258 C.ar    
   7 C7            -3.2895     2.1026     3.2467 C.ar    
   8 C8            -2.5293     2.5309     2.1772 C.ar    
   9 C9            -4.5057     0.3038     4.4737 C.2     
  10 C10           -4.9376     1.0672     5.5188 C.2     
  11 N11           -5.6469     0.2686     6.3415 N.pl3   
  12 N12           -5.6576    -1.0214     5.7973 N.2     
  13 C13           -4.9823    -1.0057     4.6787 C.2     
  14 C14            0.9700     1.7549    -0.8929 C.ar    
  15 C15            0.3375     0.6009     1.1096 C.ar    
  16 C16            1.5870     0.0147     1.1697 C.ar    
  17 C17            2.5327     0.2989     0.1952 C.ar    
  18 C18            2.2207     1.1710    -0.8376 C.ar    
  19 O19            3.7628    -0.2761     0.2524 O.3     
  20 C20           -1.1815     3.6343     0.0861 C.3     
  21 C21           -0.3086     4.1081    -1.0803 C.3     
  22 N22           -0.8885     3.6134    -2.3363 N.am    
  23 C23           -1.1595     2.1757    -2.4713 C.3     
  24 C24           -2.0231     1.7239    -1.2894 C.3     
  25 C25            4.6860     0.0624    -0.7846 C.3     
  26 C26            6.0059    -0.6759    -0.5533 C.3     
  27 O27            5.7933    -2.0832    -0.6810 O.3     
  28 C28            6.9701    -2.8692    -0.4823 C.3     
  29 C29           -1.1669     4.4623    -3.3454 C.2     
  30 O30           -0.9385     5.6493    -3.2212 O.2     
  31 O31           -1.6982     3.9953    -4.4909 O.3     
  32 C32           -1.9722     4.9667    -5.5347 C.3     
  33 C33           -0.6705     5.6621    -5.9387 C.3     
  34 C34           -2.5685     4.2546    -6.7505 C.3     
  35 C35           -2.9661     6.0073    -5.0148 C.3     
  36 H36           -2.2707    -0.3755     0.4788 H       
  37 H37           -3.6224    -1.1575     2.3800 H       
  38 H38           -3.5749     2.7993     4.0210 H       
  39 H39           -2.2198     3.5637     2.1151 H       
  40 H40           -4.7459     2.1204     5.6612 H       
  41 H41           -6.0757     0.5407     7.1680 H       
  42 H42           -4.8130    -1.8511     4.0283 H       
  43 H43            0.7267     2.4341    -1.6965 H       
  44 H44           -0.3989     0.3803     1.8681 H       
  45 H45            1.8275    -0.6638     1.9747 H       
  46 H46            2.9551     1.3935    -1.5975 H       
  47 H47           -2.1643     4.1008     0.0179 H       
  48 H48           -0.7109     3.9125     1.0291 H       
  49 H49           -0.2790     5.1975    -1.0956 H       
  50 H50            0.7013     3.7147    -0.9641 H       
  51 H51           -1.6914     1.9901    -3.4044 H       
  52 H52           -0.2190     1.6247    -2.4686 H       
  53 H53           -2.1515     0.6421    -1.3252 H       
  54 H54           -2.9979     2.2085    -1.3448 H       
  55 H55            4.2711    -0.2287    -1.7496 H       
  56 H56            4.8646     1.1376    -0.7753 H       
  57 H57            6.7385    -0.3506    -1.2919 H       
  58 H58            6.3760    -0.4537     0.4477 H       
  59 H59            7.7226    -2.5894    -1.2196 H       
  60 H60            7.3601    -2.6925     0.5201 H       
  61 H61            6.7251    -3.9252    -0.5960 H       
  62 H62            0.0376     4.9208    -6.3091 H       
  63 H63           -0.8762     6.3913    -6.7223 H       
  64 H64           -0.2457     6.1694    -5.0726 H       
  65 H65           -3.4958     3.7592    -6.4626 H       
  66 H66           -2.7742     4.9838    -7.5340 H       
  67 H67           -1.8604     3.5133    -7.1208 H       
  68 H68           -2.5413     6.5146    -4.1487 H       
  69 H69           -3.1718     6.7365    -5.7984 H       
  70 H70           -3.8934     5.5119    -4.7270 H       
@<TRIPOS>BOND
   1    1   14 ar
   2    1   15 ar
   3    1    4 1
   4    2    3 ar
   5    2    5 ar
   6    2   36 1
   7    3    4 1
   8    3    8 ar
   9    4   20 1
  10    4   24 1
  11    5    6 ar
  12    5   37 1
  13    6    7 ar
  14    6    9 1
  15    7    8 ar
  16    7   38 1
  17    8   39 1
  18    9   10 2
  19    9   13 1
  20   10   11 1
  21   10   40 1
  22   11   12 1
  23   11   41 1
  24   12   13 2
  25   13   42 1
  26   14   18 ar
  27   14   43 1
  28   15   16 ar
  29   15   44 1
  30   16   17 ar
  31   16   45 1
  32   17   18 ar
  33   17   19 1
  34   18   46 1
  35   19   25 1
  36   20   21 1
  37   20   47 1
  38   20   48 1
  39   21   22 1
  40   21   49 1
  41   21   50 1
  42   22   23 1
  43   22   29 am
  44   23   24 1
  45   23   51 1
  46   23   52 1
  47   24   53 1
  48   24   54 1
  49   25   26 1
  50   25   55 1
  51   25   56 1
  52   26   27 1
  53   26   57 1
  54   26   58 1
  55   27   28 1
  56   28   59 1
  57   28   60 1
  58   28   61 1
  59   29   30 2
  60   29   31 1
  61   31   32 1
  62   32   33 1
  63   32   34 1
  64   32   35 1
  65   33   62 1
  66   33   63 1
  67   33   64 1
  68   34   65 1
  69   34   66 1
  70   34   67 1
  71   35   68 1
  72   35   69 1
  73   35   70 1

#	End of record

