#	Name: ASD03240605
#	Creating user name:	WinNT
#	Creation time:	15. 06. 2019 20:35

#	Modifying user name:	WinNT
#	Modification time:	15. 06. 2019 20:35

#	Program:	/corina/corina34_cracker 3.40 0067  02.08.2006

@<TRIPOS>MOLECULE
ASD03240605
  61   67    0    0    0
SMALL
NO_CHARGES


@<TRIPOS>ATOM
   1 C1            -0.0166     1.3755     0.0096 C.ar    
   2 C2             0.0021    -0.0041     0.0020 C.ar    
   3 N3             1.1422    -0.6683    -0.0058 N.ar    
   4 C4             2.3145    -0.0481    -0.0058 C.ar    
   5 C5             2.3702     1.3442    -0.0124 C.ar    
   6 C6             1.1860     2.0698     0.0018 C.ar    
   7 N7             3.4820    -0.8058     0.0220 N.pl3   
   8 C8             4.3592    -0.7194     1.0997 C.ar    
   9 C9             4.9952     0.4890     1.4036 C.ar    
  10 C10            4.7637     1.6835     0.5620 C.2     
  11 N11            3.5939     2.0276    -0.0512 N.pl3   
  12 C12            4.6051    -1.8391     1.8830 C.ar    
  13 C13            5.4649    -1.7538     2.9614 C.ar    
  14 C14            6.0859    -0.5557     3.2701 C.ar    
  15 C15            5.8562     0.5653     2.4982 C.ar    
  16 N16            5.6751     2.5941     0.2849 N.2     
  17 C17            5.1448     3.5398    -0.5058 C.2     
  18 C18            3.8224     3.2037    -0.7368 C.2     
  19 C19            2.8495     3.9538    -1.5545 C.ar    
  20 C20            2.7505     5.3418    -1.4300 C.ar    
  21 C21            2.0271     3.2799    -2.4608 C.ar    
  22 C22            1.1201     3.9875    -3.2217 C.ar    
  23 C23            1.0235     5.3615    -3.0890 C.ar    
  24 C24            1.8389     6.0363    -2.1974 C.ar    
  25 C25            5.8486     4.7306    -1.0358 C.ar    
  26 C26            0.0299     6.1275    -3.9240 C.3     
  27 C27            6.8180     5.3718    -0.2647 C.ar    
  28 C28            7.4705     6.4803    -0.7641 C.ar    
  29 C29            7.1646     6.9562    -2.0266 C.ar    
  30 C30            6.2040     6.3245    -2.7961 C.ar    
  31 C31            5.5487     5.2117    -2.3101 C.ar    
  32 C32            0.5431     7.5533    -4.2036 C.3     
  33 O33            0.6575     7.6086    -5.6550 O.3     
  34 C34            0.2843     6.4348    -6.1769 C.2     
  35 N35           -0.0899     5.5295    -5.2625 N.am    
  36 O36            0.2842     6.2101    -7.3711 O.2     
  37 C37           -1.3321     6.1733    -3.2285 C.3     
  38 O38           -2.2851     6.8014    -4.0883 O.3     
  39 H39           -0.9556     1.9091     0.0170 H       
  40 H40           -0.9306    -0.5486     0.0028 H       
  41 H41            1.2002     3.1497     0.0064 H       
  42 H42            3.6863    -1.4002    -0.7168 H       
  43 H43            4.1238    -2.7773     1.6495 H       
  44 H44            5.6534    -2.6275     3.5676 H       
  45 H45            6.7523    -0.4979     4.1181 H       
  46 H46            6.3420     1.4988     2.7410 H       
  47 H47            3.3860     5.8696    -0.7344 H       
  48 H48            2.1017     2.2076    -2.5656 H       
  49 H49            0.4839     3.4679    -3.9229 H       
  50 H50            1.7581     7.1088    -2.0991 H       
  51 H51            7.0572     5.0016     0.7212 H       
  52 H52            8.2213     6.9776    -0.1680 H       
  53 H53            7.6775     7.8246    -2.4128 H       
  54 H54            5.9692     6.7009    -3.7808 H       
  55 H55            4.7990     4.7195    -2.9117 H       
  56 H56           -0.1734     8.2938    -3.8482 H       
  57 H57            1.5163     7.7074    -3.7375 H       
  58 H58           -0.3904     4.6270    -5.4523 H       
  59 H59           -1.6594     5.1582    -3.0034 H       
  60 H60           -1.2482     6.7418    -2.3023 H       
  61 H61           -3.1732     6.8651    -3.7111 H       
@<TRIPOS>BOND
   1    1    2 ar
   2    1    6 ar
   3    1   39 1
   4    2    3 ar
   5    2   40 1
   6    3    4 ar
   7    4    5 ar
   8    4    7 1
   9    5    6 ar
  10    5   11 1
  11    6   41 1
  12    7    8 1
  13    7   42 1
  14    8    9 ar
  15    8   12 ar
  16    9   10 1
  17    9   15 ar
  18   10   11 1
  19   10   16 2
  20   11   18 1
  21   12   13 ar
  22   12   43 1
  23   13   14 ar
  24   13   44 1
  25   14   15 ar
  26   14   45 1
  27   15   46 1
  28   16   17 1
  29   17   18 2
  30   17   25 1
  31   18   19 1
  32   19   20 ar
  33   19   21 ar
  34   20   24 ar
  35   20   47 1
  36   21   22 ar
  37   21   48 1
  38   22   23 ar
  39   22   49 1
  40   23   24 ar
  41   23   26 1
  42   24   50 1
  43   25   27 ar
  44   25   31 ar
  45   26   32 1
  46   26   37 1
  47   26   35 1
  48   27   28 ar
  49   27   51 1
  50   28   29 ar
  51   28   52 1
  52   29   30 ar
  53   29   53 1
  54   30   31 ar
  55   30   54 1
  56   31   55 1
  57   32   33 1
  58   32   56 1
  59   32   57 1
  60   33   34 1
  61   34   35 am
  62   34   36 2
  63   35   58 1
  64   37   38 1
  65   37   59 1
  66   37   60 1
  67   38   61 1

#	End of record

