#	Name: ASD00843659
#	Creating user name:	WinNT
#	Creation time:	15. 06. 2019 18:47

#	Modifying user name:	WinNT
#	Modification time:	15. 06. 2019 18:47

#	Program:	/corina/corina34_cracker 3.40 0067  02.08.2006

@<TRIPOS>MOLECULE
ASD00843659
  94   99    0    0    0
SMALL
NO_CHARGES


@<TRIPOS>ATOM
   1 F1             5.6885    -2.5251    -1.9535 F       
   2 N2             0.9327     1.0796    -0.2964 N.ar    
   3 C3             1.0958    -0.2053    -0.5636 C.ar    
   4 C4             0.9416    -1.1607     0.4331 C.ar    
   5 C5             0.6141    -0.7508     1.7136 C.ar    
   6 C6             0.4517     0.6070     1.9530 C.ar    
   7 C7             0.6204     1.5008     0.9146 C.ar    
   8 C8             1.1279    -2.6238     0.1238 C.3     
   9 C9             0.7686    -3.4700     1.3265 C.2     
  10 C10            0.2828    -3.0262    -1.0864 C.3     
  11 C11           -1.1562    -2.6517    -0.8412 C.2     
  12 N12           -2.1060    -3.0087    -1.7282 N.am    
  13 O13           -1.4595    -2.0291     0.1544 O.2     
  14 C14           -3.4940    -2.5565    -1.5615 C.3     
  15 C15           -4.4173    -3.7786    -1.5883 C.3     
  16 C16           -4.1656    -4.5752    -2.8706 C.3     
  17 C17           -2.7157    -5.0646    -2.8927 C.3     
  18 C18           -1.7720    -3.8525    -2.8838 C.3     
  19 C19           -5.1103    -5.7777    -2.9174 C.3     
  20 C20           -6.5614    -5.2895    -2.8970 C.3     
  21 C21           -7.5009    -6.4927    -3.0054 C.3     
  22 N22           -7.2272    -7.2183    -4.2524 N.3     
  23 C23           -5.8537    -7.7374    -4.2742 C.3     
  24 C24           -4.8651    -6.5713    -4.2037 C.3     
  25 C25           -8.2015    -8.2983    -4.4578 C.3     
  26 O26           -0.3158    -3.5310     1.8663 O.2     
  27 N27            1.8766    -4.1411     1.6835 N.am    
  28 C28            2.5875    -2.9317    -0.1200 C.ar    
  29 C29            2.9618    -3.8478     0.8550 C.ar    
  30 C30            3.4931    -2.4883    -1.0576 C.ar    
  31 C31            4.7967    -2.9572    -1.0351 C.ar    
  32 C32            5.1826    -3.8718    -0.0669 C.ar    
  33 C33            4.2735    -4.3164     0.8737 C.ar    
  34 F34            6.4532    -4.3302    -0.0433 F       
  35 C35            1.5325    -6.7913     2.3410 C.ar    
  36 C36            0.2594    -7.0354     1.8474 C.ar    
  37 C37            2.4769    -7.7998     2.3421 C.ar    
  38 C38            2.1540    -9.0513     1.8514 C.ar    
  39 C39            0.8855    -9.2972     1.3587 C.ar    
  40 C40           -0.0623    -8.2925     1.3559 C.ar    
  41 H41            0.6356   -10.2757     0.9759 H       
  42 O42           -0.6714    -6.0452     1.8457 O.3     
  43 C43           -1.9613    -6.3683     1.3224 C.3     
  44 C44           -7.9618    -8.9489    -5.8217 C.3     
  45 C45           -8.0391    -9.3479    -3.3565 C.3     
  46 S46            1.9472    -5.1944     2.9594 S.o2    
  47 O47            3.3114    -5.2580     3.3522 O.2     
  48 O48            0.9000    -4.8226     3.8450 O.2     
  49 O49            1.4163    -0.5942    -1.8233 O.3     
  50 C50            1.5133     0.4311    -2.8139 C.3     
  51 C51            1.9822    -0.1798    -4.1360 C.3     
  52 F52            3.1938    -0.8499    -3.9363 F       
  53 F53            1.0201    -1.0837    -4.5991 F       
  54 H54            0.4875    -1.4709     2.5085 H       
  55 H55            0.1958     0.9602     2.9410 H       
  56 H56            0.4955     2.5581     1.0957 H       
  57 H57            0.6473    -2.5072    -1.9729 H       
  58 H58            0.3570    -4.1029    -1.2396 H       
  59 H59           -3.5980    -2.0408    -0.6068 H       
  60 H60           -3.7584    -1.8809    -2.3749 H       
  61 H61           -4.2124    -4.4085    -0.7226 H       
  62 H62           -5.4563    -3.4502    -1.5621 H       
  63 H63           -4.3468    -3.9374    -3.7357 H       
  64 H64           -2.5268    -5.6824    -2.0148 H       
  65 H65           -2.5436    -5.6515    -3.7950 H       
  66 H66           -1.8974    -3.2849    -3.8058 H       
  67 H67           -0.7401    -4.1934    -2.7996 H       
  68 H68           -4.9290    -6.4172    -2.0535 H       
  69 H69           -6.7542    -4.7602    -1.9638 H       
  70 H70           -6.7314    -4.6181    -3.7387 H       
  71 H71           -7.3401    -7.1568    -2.1561 H       
  72 H72           -8.5347    -6.1474    -3.0055 H       
  73 H73           -5.7006    -8.3956    -3.4190 H       
  74 H74           -5.6912    -8.2961    -5.1959 H       
  75 H75           -5.0083    -5.9201    -5.0660 H       
  76 H76           -3.8459    -6.9578    -4.2041 H       
  77 H77           -9.2109    -7.8885    -4.4231 H       
  78 H78            3.1875    -1.7762    -1.8098 H       
  79 H79            4.5805    -5.0286     1.6253 H       
  80 H80            3.4683    -7.6103     2.7263 H       
  81 H81            2.8938    -9.8381     1.8524 H       
  82 H82           -1.0531    -8.4852     0.9717 H       
  83 H83           -1.8638    -6.6804     0.2826 H       
  84 H84           -2.3974    -7.1792     1.9057 H       
  85 H85           -2.6066    -5.4917     1.3796 H       
  86 H86           -6.9523    -9.3587    -5.8564 H       
  87 H87           -8.6847    -9.7503    -5.9741 H       
  88 H88           -8.0775    -8.2011    -6.6063 H       
  89 H89           -8.2099    -8.8845    -2.3848 H       
  90 H90           -8.7620   -10.1493    -3.5089 H       
  91 H91           -7.0296    -9.7578    -3.3912 H       
  92 H92            0.5368     0.8947    -2.9539 H       
  93 H93            2.2299     1.1849    -2.4876 H       
  94 H94            2.1217     0.6115    -4.8726 H       
@<TRIPOS>BOND
   1    1   31 1
   2    2    3 ar
   3    2    7 ar
   4    3    4 ar
   5    3   49 1
   6    4    5 ar
   7    4    8 1
   8    5    6 ar
   9    5   54 1
  10    6    7 ar
  11    6   55 1
  12    7   56 1
  13    8    9 1
  14    8   10 1
  15    8   28 1
  16    9   26 2
  17    9   27 am
  18   10   11 1
  19   10   57 1
  20   10   58 1
  21   11   12 am
  22   11   13 2
  23   12   14 1
  24   12   18 1
  25   14   15 1
  26   14   59 1
  27   14   60 1
  28   15   16 1
  29   15   61 1
  30   15   62 1
  31   16   17 1
  32   16   19 1
  33   16   63 1
  34   17   18 1
  35   17   64 1
  36   17   65 1
  37   18   66 1
  38   18   67 1
  39   19   20 1
  40   19   24 1
  41   19   68 1
  42   20   21 1
  43   20   69 1
  44   20   70 1
  45   21   22 1
  46   21   71 1
  47   21   72 1
  48   22   23 1
  49   22   25 1
  50   23   24 1
  51   23   73 1
  52   23   74 1
  53   24   75 1
  54   24   76 1
  55   25   44 1
  56   25   45 1
  57   25   77 1
  58   27   46 am
  59   27   29 1
  60   28   29 ar
  61   28   30 ar
  62   29   33 ar
  63   30   31 ar
  64   30   78 1
  65   31   32 ar
  66   32   33 ar
  67   32   34 1
  68   33   79 1
  69   35   36 ar
  70   35   37 ar
  71   35   46 1
  72   36   42 1
  73   36   40 ar
  74   37   38 ar
  75   37   80 1
  76   38   39 ar
  77   38   81 1
  78   39   40 ar
  79   39   41 1
  80   40   82 1
  81   42   43 1
  82   43   83 1
  83   43   84 1
  84   43   85 1
  85   44   86 1
  86   44   87 1
  87   44   88 1
  88   45   89 1
  89   45   90 1
  90   45   91 1
  91   46   47 2
  92   46   48 2
  93   49   50 1
  94   50   51 1
  95   50   92 1
  96   50   93 1
  97   51   52 1
  98   51   53 1
  99   51   94 1

#	End of record

