#	Name: ASD03090055
#	Creating user name:	WinNT
#	Creation time:	15. 06. 2019 20:28

#	Modifying user name:	WinNT
#	Modification time:	15. 06. 2019 20:28

#	Program:	/corina/corina34_cracker 3.40 0067  02.08.2006

@<TRIPOS>MOLECULE
ASD03090055
  40   42    0    0    0
SMALL
NO_CHARGES


@<TRIPOS>ATOM
   1 N1            -0.0141     1.3321    -0.4384 N.am    
   2 C2            -0.0064     0.1173     0.1454 C.2     
   3 O3             0.9953    -0.2804     0.7081 O.2     
   4 N4            -1.1091    -0.6566     0.1053 N.am    
   5 O5            -0.0787    -2.4794     1.3607 O.3     
   6 N6            -0.3764    -3.5759     1.7741 N.2     
   7 C7            -1.6033    -3.8924     1.4684 C.2     
   8 C8            -2.1318    -2.8013     0.7498 C.2     
   9 C9            -1.1012    -1.9067     0.7060 C.2     
  10 C10           -2.3166    -5.1738     1.8150 C.3     
  11 F11           -1.4950    -5.9589     2.6310 F       
  12 F12           -3.5031    -4.8780     2.4946 F       
  13 F13           -2.6139    -5.8742     0.6410 F       
  14 C14            1.0942     2.1756    -0.3121 C.ar    
  15 C15            0.9160     3.5637    -0.2374 C.ar    
  16 C16            2.0271     4.3971    -0.1111 C.ar    
  17 C17            3.2974     3.8495    -0.0603 C.ar    
  18 C18            3.4678     2.4736    -0.1347 C.ar    
  19 C19            2.3720     1.6406    -0.2546 C.ar    
  20 S20           -0.8208     5.8612    -0.3509 S.3     
  21 C21           -0.4427     4.1415    -0.2928 C.2     
  22 N22           -1.5536     3.4612    -0.3074 N.2     
  23 C23           -2.6727     4.1471    -0.3593 C.2     
  24 C24           -2.5404     5.4768    -0.3915 C.2     
  25 O25            4.3814     4.6613     0.0625 O.3     
  26 C26            5.6626     4.0302     0.1089 C.3     
  27 C27            6.7514     5.0961     0.2477 C.3     
  28 H28           -0.7868     1.6197    -0.9494 H       
  29 H29           -1.9083    -0.3393    -0.3437 H       
  30 H30           -3.1217    -2.6972     0.3307 H       
  31 H31            1.8968     5.4677    -0.0534 H       
  32 H32            4.4614     2.0521    -0.0944 H       
  33 H33            2.5113     0.5709    -0.3075 H       
  34 H34           -3.6397     3.6665    -0.3753 H       
  35 H35           -3.3481     6.1925    -0.4345 H       
  36 H36            5.7042     3.3549     0.9634 H       
  37 H37            5.8226     3.4648    -0.8092 H       
  38 H38            6.7098     5.7714    -0.6069 H       
  39 H39            6.5914     5.6615     1.1657 H       
  40 H40            7.7287     4.6147     0.2831 H       
@<TRIPOS>BOND
   1    1    2 am
   2    1   14 1
   3    1   28 1
   4    2    3 2
   5    2    4 am
   6    4    9 1
   7    4   29 1
   8    5    6 1
   9    5    9 1
  10    6    7 2
  11    7    8 1
  12    7   10 1
  13    8    9 2
  14    8   30 1
  15   10   11 1
  16   10   12 1
  17   10   13 1
  18   14   15 ar
  19   14   19 ar
  20   15   16 ar
  21   15   21 1
  22   16   17 ar
  23   16   31 1
  24   17   18 ar
  25   17   25 1
  26   18   19 ar
  27   18   32 1
  28   19   33 1
  29   20   21 1
  30   20   24 1
  31   21   22 2
  32   22   23 1
  33   23   24 2
  34   23   34 1
  35   24   35 1
  36   25   26 1
  37   26   27 1
  38   26   36 1
  39   26   37 1
  40   27   38 1
  41   27   39 1
  42   27   40 1

#	End of record

