#	Name: ASD05720031
#	Creating user name:	WinNT
#	Creation time:	15. 06. 2019 21:01

#	Modifying user name:	WinNT
#	Modification time:	15. 06. 2019 21:01

#	Program:	/corina/corina34_cracker 3.40 0067  02.08.2006

@<TRIPOS>MOLECULE
ASD05720031
  77   82    0    0    0
SMALL
NO_CHARGES


@<TRIPOS>ATOM
   1 O1             1.8780     0.5117     5.2288 O.3     
   2 C2             1.4631    -0.3652     4.3079 C.2     
   3 N3             2.1643    -0.3252     3.1666 N.am    
   4 C4             3.2075     0.7050     3.2848 C.3     
   5 C5             3.0031     1.2733     4.7024 C.3     
   6 O6             0.5352    -1.1283     4.4895 O.2     
   7 C7             2.7640    -2.2856     0.2341 C.2     
   8 N8             2.9596    -1.5143     1.3077 N.2     
   9 C9             1.9427    -1.1263     2.0542 C.2     
  10 C10            0.6318    -1.5251     1.7231 C.2     
  11 C11            0.4305    -2.3057     0.6371 C.2     
  12 N12            1.5039    -2.6914    -0.1166 N.pl3   
  13 N13            1.6097    -3.4786    -1.2688 N.2     
  14 C14            2.8686    -3.5621    -1.6220 C.2     
  15 C15            3.6421    -2.8258    -0.7158 C.2     
  16 C16            5.1108    -2.6519    -0.7532 C.ar    
  17 C17            5.9479    -3.7651    -0.6552 C.ar    
  18 C18            7.3164    -3.6030    -0.6905 C.ar    
  19 C19            7.8648    -2.3226    -0.8245 C.ar    
  20 C20            7.0251    -1.2108    -0.9222 C.ar    
  21 C21            5.6592    -1.3748    -0.8922 C.ar    
  22 N22           10.0976    -2.0711    -1.9752 N.pl3   
  23 N23           11.4196    -1.9048    -1.5317 N.2     
  24 C24           11.3856    -1.8893    -0.2245 C.2     
  25 N25           10.1278    -2.0350     0.1829 N.2     
  26 C26            9.3313    -2.1469    -0.8620 C.2     
  27 C27            9.6388    -2.1420    -3.3647 C.3     
  28 O28            9.8116    -3.4727    -3.8561 O.3     
  29 C29            9.3236    -3.6696    -5.1847 C.3     
  30 C30            9.4856    -5.1402    -5.5747 C.3     
  31 Si31           8.8494    -5.3969    -7.3068 Si      
  32 C32            9.8178    -4.3307    -8.4885 C.3     
  33 C33            9.0466    -7.1875    -7.7818 C.3     
  34 C34            7.0476    -4.9292    -7.3823 C.3     
  35 F35            8.1274    -4.6793    -0.5955 F       
  36 C36            3.0051     1.7979     2.2333 C.3     
  37 C37            3.9317     2.9767     2.5381 C.3     
  38 C38            3.7293     4.0695     1.4866 C.3     
  39 C39            4.0549     3.5100     0.1003 C.3     
  40 C40            3.1283     2.3313    -0.2044 C.3     
  41 C41            3.3307     1.2384     0.8470 C.3     
  42 H42            4.1979     0.2597     3.1899 H       
  43 H43            2.7583     2.3345     4.6571 H       
  44 H44            3.8926     1.1109     5.3111 H       
  45 H45           -0.2037    -1.2106     2.3309 H       
  46 H46           -0.5669    -2.6211     0.3686 H       
  47 H47            3.2473    -4.1064    -2.4744 H       
  48 H48            5.5234    -4.7528    -0.5515 H       
  49 H49            7.4480    -0.2224    -1.0253 H       
  50 H50            5.0107    -0.5149    -0.9723 H       
  51 H51           12.2434    -1.7766     0.4220 H       
  52 H52            8.5843    -1.8707    -3.4135 H       
  53 H53           10.2203    -1.4509    -3.9750 H       
  54 H54            8.2695    -3.3959    -5.2289 H       
  55 H55            9.8902    -3.0458    -5.8760 H       
  56 H56           10.5397    -5.4138    -5.5305 H       
  57 H57            8.9190    -5.7639    -4.8834 H       
  58 H58           10.8720    -4.6044    -8.4443 H       
  59 H59            9.4456    -4.4810    -9.5019 H       
  60 H60            9.7024    -3.2831    -8.2106 H       
  61 H61            8.4800    -7.8113    -7.0904 H       
  62 H62            8.6744    -7.3377    -8.7952 H       
  63 H63           10.1007    -7.4612    -7.7376 H       
  64 H64            6.9323    -3.8815    -7.1044 H       
  65 H65            6.6754    -5.0794    -8.3957 H       
  66 H66            6.4811    -5.5529    -6.6910 H       
  67 H67            1.9689     2.1353     2.2548 H       
  68 H68            3.6997     3.3752     3.5257 H       
  69 H69            4.9679     2.6393     2.5166 H       
  70 H70            2.6930     4.4069     1.5081 H       
  71 H71            4.3894     4.9093     1.7037 H       
  72 H72            3.9107     4.2886    -0.6488 H       
  73 H73            5.0911     3.1726     0.0788 H       
  74 H74            2.0920     2.6687    -0.1830 H       
  75 H75            3.3602     1.9327    -1.1921 H       
  76 H76            4.3669     0.9010     0.8256 H       
  77 H77            2.6706     0.3986     0.6299 H       
@<TRIPOS>BOND
   1    1    2 1
   2    1    5 1
   3    2    3 am
   4    2    6 2
   5    3    4 1
   6    3    9 1
   7    4    5 1
   8    4   36 1
   9    4   42 1
  10    5   43 1
  11    5   44 1
  12    7    8 1
  13    7   12 1
  14    7   15 2
  15    8    9 2
  16    9   10 1
  17   10   11 2
  18   10   45 1
  19   11   12 1
  20   11   46 1
  21   12   13 1
  22   13   14 2
  23   14   15 1
  24   14   47 1
  25   15   16 1
  26   16   17 ar
  27   16   21 ar
  28   17   18 ar
  29   17   48 1
  30   18   19 ar
  31   18   35 1
  32   19   20 ar
  33   19   26 1
  34   20   21 ar
  35   20   49 1
  36   21   50 1
  37   22   23 1
  38   22   26 1
  39   22   27 1
  40   23   24 2
  41   24   25 1
  42   24   51 1
  43   25   26 2
  44   27   28 1
  45   27   52 1
  46   27   53 1
  47   28   29 1
  48   29   30 1
  49   29   54 1
  50   29   55 1
  51   30   31 1
  52   30   56 1
  53   30   57 1
  54   31   32 1
  55   31   33 1
  56   31   34 1
  57   32   58 1
  58   32   59 1
  59   32   60 1
  60   33   61 1
  61   33   62 1
  62   33   63 1
  63   34   64 1
  64   34   65 1
  65   34   66 1
  66   36   37 1
  67   36   41 1
  68   36   67 1
  69   37   38 1
  70   37   68 1
  71   37   69 1
  72   38   39 1
  73   38   70 1
  74   38   71 1
  75   39   40 1
  76   39   72 1
  77   39   73 1
  78   40   41 1
  79   40   74 1
  80   40   75 1
  81   41   76 1
  82   41   77 1

#	End of record

