#	Name: ASD01901404
#	Creating user name:	WinNT
#	Creation time:	15. 06. 2019 19:53

#	Modifying user name:	WinNT
#	Modification time:	15. 06. 2019 19:53

#	Program:	/corina/corina34_cracker 3.40 0067  02.08.2006

@<TRIPOS>MOLECULE
ASD01901404
  41   44    0    0    0
SMALL
NO_CHARGES


@<TRIPOS>ATOM
   1 C1            -0.0169     1.3915     0.0097 C.ar    
   2 C2             1.1867     2.0794     0.0019 C.ar    
   3 N3             2.3384     1.4277    -0.0130 N.ar    
   4 C4             2.3942     0.1089    -0.0207 C.ar    
   5 C5             1.2433    -0.6495    -0.0138 C.ar    
   6 C6             0.0021    -0.0041     0.0020 C.ar    
   7 C7            -1.2608    -0.7826     0.0099 C.2     
   8 N8            -3.2470    -1.4111     1.1210 N.2     
   9 C9            -2.1325    -0.7219     1.1192 C.2     
  10 C10           -1.5998    -1.5646    -1.0592 C.2     
  11 N11           -2.7672    -2.2665    -1.0197 N.pl3   
  12 C12           -3.5847    -2.1852     0.0785 C.2     
  13 C13           -3.3688    -3.1153    -1.9097 C.2     
  14 C14           -4.5233    -3.5283    -1.3453 C.2     
  15 N15           -4.6389    -2.9572    -0.1425 N.2     
  16 C16           -5.5162    -4.4759    -1.9675 C.3     
  17 O17           -5.0489    -4.8762    -3.2573 O.3     
  18 C18           -5.8337    -5.7370    -3.9582 C.ar    
  19 C19           -7.0311    -6.1818    -3.4177 C.ar    
  20 C20           -5.4404    -6.1667    -5.2171 C.ar    
  21 C21           -6.2390    -7.0411    -5.9285 C.ar    
  22 C22           -7.4318    -7.4880    -5.3858 C.ar    
  23 C23           -7.8278    -7.0562    -4.1313 C.ar    
  24 F24           -8.2123    -8.3424    -6.0830 F       
  25 O25            1.1838     3.4363     0.0092 O.3     
  26 C26            2.4556     4.0878     0.0006 C.3     
  27 H27           -0.9545     1.9271     0.0260 H       
  28 H28            3.3556    -0.3831    -0.0329 H       
  29 H29            1.2989    -1.7280    -0.0208 H       
  30 H30           -1.8796    -0.1054     1.9692 H       
  31 H31           -0.9526    -1.6249    -1.9217 H       
  32 H32           -2.9911    -3.4004    -2.8805 H       
  33 H33           -5.6271    -5.3547    -1.3323 H       
  34 H34           -6.4801    -3.9770    -2.0691 H       
  35 H35           -7.3403    -5.8451    -2.4392 H       
  36 H36           -4.5104    -5.8176    -5.6410 H       
  37 H37           -5.9331    -7.3758    -6.9087 H       
  38 H38           -8.7602    -7.4027    -3.7107 H       
  39 H39            2.3105     5.1681     0.0078 H       
  40 H40            3.0217     3.7914     0.8836 H       
  41 H41            3.0047     3.8009    -0.8963 H       
@<TRIPOS>BOND
   1    1    6 ar
   2    1    2 ar
   3    1   27 1
   4    2    3 ar
   5    2   25 1
   6    3    4 ar
   7    4    5 ar
   8    4   28 1
   9    5    6 ar
  10    5   29 1
  11    6    7 1
  12    7   10 2
  13    7    9 1
  14    8    9 2
  15    8   12 1
  16    9   30 1
  17   10   11 1
  18   10   31 1
  19   11   13 1
  20   11   12 1
  21   12   15 2
  22   13   14 2
  23   13   32 1
  24   14   15 1
  25   14   16 1
  26   16   17 1
  27   16   33 1
  28   16   34 1
  29   17   18 1
  30   18   20 ar
  31   18   19 ar
  32   19   23 ar
  33   19   35 1
  34   20   21 ar
  35   20   36 1
  36   21   22 ar
  37   21   37 1
  38   22   23 ar
  39   22   24 1
  40   23   38 1
  41   25   26 1
  42   26   39 1
  43   26   40 1
  44   26   41 1

#	End of record

