#	Name: ASD05720015
#	Creating user name:	WinNT
#	Creation time:	15. 06. 2019 21:01

#	Modifying user name:	WinNT
#	Modification time:	15. 06. 2019 21:01

#	Program:	/corina/corina34_cracker 3.40 0067  02.08.2006

@<TRIPOS>MOLECULE
ASD05720015
  60   62    0    0    0
SMALL
NO_CHARGES


@<TRIPOS>ATOM
   1 N1            -0.0170     1.4001     0.0097 N.pl3   
   2 N2             0.0021    -0.0041     0.0020 N.2     
   3 C3             1.2672    -0.3649    -0.0120 C.2     
   4 N4             2.0284     0.7382    -0.0133 N.2     
   5 C5             1.2679     1.8003    -0.0004 C.2     
   6 C6            -1.2027     2.2605     0.0203 C.3     
   7 O7            -0.7970     3.6307     0.0251 O.3     
   8 C8            -1.8838     4.5585     0.0355 C.3     
   9 C9            -1.3349     5.9867     0.0399 C.3     
  10 Si10          -2.7517     7.1964     0.0534 Si      
  11 C11           -3.7863     6.9240     1.5786 C.3     
  12 C12           -2.0834     8.9354     0.0588 C.3     
  13 C13           -3.8021     6.9395    -1.4636 C.3     
  14 C14            1.7677    -1.7605    -0.0238 C.ar    
  15 C15            3.1417    -2.0094    -0.0383 C.ar    
  16 C16            3.6062    -3.3066    -0.0489 C.ar    
  17 C17            2.7036    -4.3706    -0.0450 C.ar    
  18 C18            1.3310    -4.1211    -0.0310 C.ar    
  19 C19            0.8664    -2.8249    -0.0146 C.ar    
  20 O20            2.4564    -7.0554    -0.0550 O.3     
  21 B21            3.2325    -5.8487    -0.0570 Du      
  22 O22            4.5980    -6.2888    -0.0728 O.3     
  23 C23            4.6067    -7.4206    -0.9681 C.3     
  24 C24            3.1547    -7.9403    -0.9561 C.3     
  25 C25            3.1073    -9.3779    -0.4346 C.3     
  26 C26            2.5482    -7.8604    -2.3584 C.3     
  27 C27            5.0040    -6.9813    -2.3788 C.3     
  28 C28            5.5632    -8.4989    -0.4550 C.3     
  29 Cl29           4.2641    -0.6851    -0.0437 Cl      
  30 H30            1.6115     2.8242     0.0015 H       
  31 H31           -1.8032     2.0625    -0.8676 H       
  32 H32           -1.7939     2.0534     0.9123 H       
  33 H33           -2.4983     4.4082    -0.8521 H       
  34 H34           -2.4891     4.3992     0.9278 H       
  35 H35           -0.7203     6.1370     0.9275 H       
  36 H36           -0.7296     6.1461    -0.8524 H       
  37 H37           -3.1717     7.0743     2.4661 H       
  38 H38           -4.6152     7.6318     1.5865 H       
  39 H39           -4.1773     5.9066     1.5754 H       
  40 H40           -1.4781     9.0948    -0.8336 H       
  41 H41           -2.9123     9.6432     0.0667 H       
  42 H42           -1.4688     9.0857     0.9464 H       
  43 H43           -4.1931     5.9220    -1.4668 H       
  44 H44           -4.6310     7.6472    -1.4557 H       
  45 H45           -3.1968     7.0988    -2.3560 H       
  46 H46            4.6688    -3.4997    -0.0604 H       
  47 H47            0.6326    -4.9449    -0.0287 H       
  48 H48           -0.1962    -2.6325     0.0011 H       
  49 H49            2.0707    -9.7098    -0.3776 H       
  50 H50            3.6604   -10.0286    -1.1120 H       
  51 H51            3.5573    -9.4196     0.5573 H       
  52 H52            2.6045    -6.8339    -2.7207 H       
  53 H53            3.1024    -8.5142    -3.0318 H       
  54 H54            1.5055    -8.1761    -2.3219 H       
  55 H55            6.0106    -6.5635    -2.3593 H       
  56 H56            4.9807    -7.8419    -3.0474 H       
  57 H57            4.3038    -6.2256    -2.7348 H       
  58 H58            5.2566    -8.8114     0.5432 H       
  59 H59            5.5387    -9.3562    -1.1276 H       
  60 H60            6.5757    -8.0973    -0.4150 H       
@<TRIPOS>BOND
   1    1    2 1
   2    1    5 1
   3    1    6 1
   4    2    3 2
   5    3    4 1
   6    3   14 1
   7    4    5 2
   8    5   30 1
   9    6    7 1
  10    6   31 1
  11    6   32 1
  12    7    8 1
  13    8    9 1
  14    8   33 1
  15    8   34 1
  16    9   10 1
  17    9   35 1
  18    9   36 1
  19   10   11 1
  20   10   12 1
  21   10   13 1
  22   11   37 1
  23   11   38 1
  24   11   39 1
  25   12   40 1
  26   12   41 1
  27   12   42 1
  28   13   43 1
  29   13   44 1
  30   13   45 1
  31   14   15 ar
  32   14   19 ar
  33   15   16 ar
  34   15   29 1
  35   16   17 ar
  36   16   46 1
  37   17   18 ar
  38   17   21 1
  39   18   19 ar
  40   18   47 1
  41   19   48 1
  42   20   21 1
  43   20   24 1
  44   21   22 1
  45   22   23 1
  46   23   24 1
  47   23   27 1
  48   23   28 1
  49   24   25 1
  50   24   26 1
  51   25   49 1
  52   25   50 1
  53   25   51 1
  54   26   52 1
  55   26   53 1
  56   26   54 1
  57   27   55 1
  58   27   56 1
  59   27   57 1
  60   28   58 1
  61   28   59 1
  62   28   60 1

#	End of record

