#	Name: ASD01140228
#	Creating user name:	WinNT
#	Creation time:	15. 06. 2019 19:00

#	Modifying user name:	WinNT
#	Modification time:	15. 06. 2019 19:00

#	Program:	/corina/corina34_cracker 3.40 0067  02.08.2006

@<TRIPOS>MOLECULE
ASD01140228
  79   86    0    0    0
SMALL
NO_CHARGES


@<TRIPOS>ATOM
   1 C1             0.5162     2.1875     0.8060 C.2     
   2 C2             0.4230     0.8495     1.0245 C.2     
   3 S3             2.0098     0.1111     0.8895 S.3     
   4 C4             2.7590     1.6702     0.5525 C.2     
   5 C5             1.7880     2.6548     0.5332 C.2     
   6 C6             4.1958     1.8750     0.3547 C.2     
   7 N7             4.7372     2.7006    -0.4868 N.2     
   8 C8             3.9378     3.4862    -1.4302 C.3     
   9 C9             3.0217     4.3993    -0.6601 C.2     
  10 N10            2.0689     4.0030     0.2183 N.pl3   
  11 C11           -0.7889     0.1467     1.3208 C.1     
  12 C12            1.4627     5.1110     0.7094 C.2     
  13 C13            2.9801     5.7600    -0.6996 C.2     
  14 N14            2.0057     6.1621     0.1596 N.2     
  15 C15            1.2007    12.4404    -7.4265 C.2     
  16 N16            1.0287    11.5650    -8.4537 N.2     
  17 C17            0.2913    13.4414    -7.5892 C.2     
  18 N18           -0.4120    13.1544    -8.7108 N.pl3   
  19 C19            0.0639    11.9927    -9.2208 C.2     
  20 C20            0.0844    14.6445    -6.7080 C.3     
  21 N21           -1.2804    14.6221    -6.1770 N.2     
  22 C22           -2.3221    14.6794    -6.9500 C.2     
  23 C23           -2.3060    14.6909    -8.4148 C.2     
  24 C24           -1.4532    13.9599    -9.2222 C.2     
  25 S25           -3.3931    15.6477    -9.4186 S.3     
  26 C26           -2.6981    14.9828   -10.8870 C.2     
  27 C27           -1.6977    14.1168   -10.5738 C.2     
  28 C28           -3.1220    15.3040   -12.2166 C.1     
  29 C29            3.9665    11.2214    -5.1944 C.3     
  30 C30           -1.7826    -0.4295     1.5637 C.1     
  31 C31           -3.4695    15.5673   -13.3066 C.1     
  32 C32            4.5558     8.7732    -2.2985 C.3     
  33 C33           -3.6483    14.7390    -6.2902 C.ar    
  34 C34           -3.7569    15.1956    -4.9773 C.ar    
  35 C35           -4.9941    15.2493    -4.3685 C.ar    
  36 C36           -6.1253    14.8509    -5.0581 C.ar    
  37 C37           -6.0237    14.3969    -6.3610 C.ar    
  38 C38           -4.7926    14.3442    -6.9821 C.ar    
  39 C39            5.1140     1.0664     1.1919 C.ar    
  40 C40            6.4238     0.8367     0.7728 C.ar    
  41 C41            7.2740     0.0836     1.5565 C.ar    
  42 C42            6.8290    -0.4433     2.7557 C.ar    
  43 C43            5.5305    -0.2187     3.1767 C.ar    
  44 C44            4.6728     0.5376     2.4042 C.ar    
  45 O45            4.1206     8.6906    -3.6571 O.3     
  46 C46            2.9455     9.4536    -3.9383 C.3     
  47 O47            3.2818    10.8412    -3.9991 O.3     
  48 C48            3.8320     6.6345    -1.5212 C.2     
  49 O49            3.6812     7.9726    -1.4605 O.3     
  50 O50            4.6717     6.1501    -2.2545 O.2     
  51 C51            2.1833    12.3241    -6.3374 C.2     
  52 O52            3.0237    11.2710    -6.2975 O.3     
  53 O53            2.2372    13.1777    -5.4737 O.2     
  54 H54           -0.3442     2.8395     0.8387 H       
  55 H55            4.5988     4.0806    -2.0610 H       
  56 H56            3.3451     2.8155    -2.0522 H       
  57 H57            0.6626     5.1220     1.4347 H       
  58 H58           -0.2956    11.5025   -10.1134 H       
  59 H59            0.7966    14.6189    -5.8833 H       
  60 H60            0.2334    15.5532    -7.2913 H       
  61 H61           -1.1334    13.5885   -11.3280 H       
  62 H62            4.4177    12.2042    -5.0576 H       
  63 H63            4.7455    10.4915    -5.4147 H       
  64 H64           -2.6712    -0.9449     1.7809 H       
  65 H65           -3.7803    15.8028   -14.2815 H       
  66 H66            5.5765     8.3986    -2.2206 H       
  67 H67            4.5238     9.8118    -1.9692 H       
  68 H68           -2.8744    15.5062    -4.4378 H       
  69 H69           -5.0795    15.6028    -3.3516 H       
  70 H70           -7.0914    14.8940    -4.5774 H       
  71 H71           -6.9101    14.0868    -6.8943 H       
  72 H72           -4.7145    13.9899    -7.9994 H       
  73 H73            6.7721     1.2469    -0.1635 H       
  74 H74            8.2888    -0.0950     1.2329 H       
  75 H75            7.4977    -1.0327     3.3655 H       
  76 H76            5.1884    -0.6329     4.1137 H       
  77 H77            3.6594     0.7126     2.7340 H       
  78 H78            2.5280     9.1387    -4.8947 H       
  79 H79            2.2102     9.2922    -3.1501 H       
@<TRIPOS>BOND
   1    1    2 2
   2    1    5 1
   3    1   54 1
   4    2    3 1
   5    2   11 1
   6    3    4 1
   7    4    5 2
   8    4    6 1
   9    5   10 1
  10    6    7 2
  11    6   39 1
  12    7    8 1
  13    8    9 1
  14    8   55 1
  15    8   56 1
  16    9   10 1
  17    9   13 2
  18   10   12 1
  19   11   30 3
  20   12   14 2
  21   12   57 1
  22   13   14 1
  23   13   48 1
  24   15   16 1
  25   15   17 2
  26   15   51 1
  27   16   19 2
  28   17   18 1
  29   17   20 1
  30   18   19 1
  31   18   24 1
  32   19   58 1
  33   20   21 1
  34   20   59 1
  35   20   60 1
  36   21   22 2
  37   22   23 1
  38   22   33 1
  39   23   24 2
  40   23   25 1
  41   24   27 1
  42   25   26 1
  43   26   27 2
  44   26   28 1
  45   27   61 1
  46   28   31 3
  47   29   52 1
  48   29   47 1
  49   29   62 1
  50   29   63 1
  51   30   64 1
  52   31   65 1
  53   32   45 1
  54   32   49 1
  55   32   66 1
  56   32   67 1
  57   33   34 ar
  58   33   38 ar
  59   34   35 ar
  60   34   68 1
  61   35   36 ar
  62   35   69 1
  63   36   37 ar
  64   36   70 1
  65   37   38 ar
  66   37   71 1
  67   38   72 1
  68   39   40 ar
  69   39   44 ar
  70   40   41 ar
  71   40   73 1
  72   41   42 ar
  73   41   74 1
  74   42   43 ar
  75   42   75 1
  76   43   44 ar
  77   43   76 1
  78   44   77 1
  79   45   46 1
  80   46   47 1
  81   46   78 1
  82   46   79 1
  83   48   49 1
  84   48   50 2
  85   51   52 1
  86   51   53 2

#	End of record

