#	Name: ASD03080027
#	Creating user name:	WinNT
#	Creation time:	15. 06. 2019 20:26

#	Modifying user name:	WinNT
#	Modification time:	15. 06. 2019 20:26

#	Program:	/corina/corina34_cracker 3.40 0067  02.08.2006

@<TRIPOS>MOLECULE
ASD03080027
  26   28    0    0    0
SMALL
NO_CHARGES


@<TRIPOS>ATOM
   1 O1            -0.0144     1.2085     0.0087 O.3     
   2 N2             0.0021    -0.0041     0.0020 N.2     
   3 C3             1.2348    -0.4424    -0.0121 C.2     
   4 N4             2.0460     0.6358    -0.0141 N.2     
   5 C5             1.2413     1.6828    -0.0008 C.2     
   6 C6             3.0150    -2.1963    -0.0376 C.ar    
   7 C7             1.6622    -1.8640    -0.0234 C.ar    
   8 C8             0.7142    -2.8902    -0.0194 C.ar    
   9 C9             1.1639    -4.1997    -0.0299 C.ar    
  10 C10            2.5241    -4.4475    -0.0438 C.ar    
  11 N11            3.3957    -3.4572    -0.0472 N.ar    
  12 C12            1.6453     3.1029     0.0030 C.ar    
  13 C13            0.6750     4.1095     0.0182 C.ar    
  14 C14            1.0624     5.4381     0.0221 C.ar    
  15 C15            2.4069     5.7704     0.0106 C.ar    
  16 C16            3.3714     4.7794    -0.0045 C.ar    
  17 C17            3.0003     3.4480    -0.0027 C.ar    
  18 F18            3.9448     2.4820    -0.0118 F       
  19 F19            0.1271     6.4129     0.0368 F       
  20 F20           -0.6367     3.7861     0.0286 F       
  21 H21            3.7584    -1.4128    -0.0454 H       
  22 H22           -0.3426    -2.6678    -0.0081 H       
  23 H23            0.4599    -5.0187    -0.0269 H       
  24 H24            2.8786    -5.4677    -0.0516 H       
  25 H25            2.7036     6.8088     0.0130 H       
  26 H26            4.4177     5.0466    -0.0138 H       
@<TRIPOS>BOND
   1    1    2 1
   2    1    5 1
   3    2    3 2
   4    3    4 1
   5    3    7 1
   6    4    5 2
   7    5   12 1
   8    6    7 ar
   9    6   11 ar
  10    6   21 1
  11    7    8 ar
  12    8    9 ar
  13    8   22 1
  14    9   10 ar
  15    9   23 1
  16   10   11 ar
  17   10   24 1
  18   12   13 ar
  19   12   17 ar
  20   13   14 ar
  21   13   20 1
  22   14   15 ar
  23   14   19 1
  24   15   16 ar
  25   15   25 1
  26   16   17 ar
  27   16   26 1
  28   17   18 1

#	End of record

