#	Name: ASD03540469
#	Creating user name:	WinNT
#	Creation time:	15. 06. 2019 20:43

#	Modifying user name:	WinNT
#	Modification time:	15. 06. 2019 20:43

#	Program:	/corina/corina34_cracker 3.40 0067  02.08.2006

@<TRIPOS>MOLECULE
ASD03540469
  58   61    0    0    0
SMALL
NO_CHARGES


@<TRIPOS>ATOM
   1 C1             2.7417    -8.6970    -2.5511 C.2     
   2 C2             2.0536    -7.5638    -1.9012 C.ar    
   3 C3             2.7862    -6.4610    -1.4527 C.ar    
   4 C4             2.1351    -5.4049    -0.8463 C.ar    
   5 C5             0.7620    -5.4373    -0.6827 C.ar    
   6 C6             0.0312    -6.5263    -1.1242 C.ar    
   7 C7             0.6670    -7.5859    -1.7369 C.ar    
   8 O8             3.9474    -8.6725    -2.6972 O.2     
   9 O9             2.0330    -9.7606    -2.9772 O.3     
  10 C10            0.0585    -4.2810    -0.0200 C.3     
  11 N11           -3.3755    -4.7457     1.2305 N.am    
  12 C12           -2.3001    -4.3326     0.5386 C.2     
  13 N13           -1.0599    -4.7844     0.7814 N.am    
  14 C14           -0.8237    -5.6951     1.7508 C.2     
  15 C15           -1.9680    -6.1842     2.5418 C.ar    
  16 C16           -1.8071    -7.1205     3.5553 C.ar    
  17 C17           -2.9244    -7.5484     4.2713 C.ar    
  18 C18           -4.1916    -7.0360     3.9671 C.ar    
  19 C19           -4.3494    -6.1151     2.9703 C.ar    
  20 C20           -3.2478    -5.6770     2.2462 C.ar    
  21 O21            0.3022    -6.1008     1.9651 O.2     
  22 O22           -2.4575    -3.5134    -0.3458 O.2     
  23 C23            1.0416    -3.5376     0.8865 C.3     
  24 C24           -2.7712    -8.5434     5.3514 C.2     
  25 N25           -3.8506    -8.9577     6.0441 N.am    
  26 O26           -1.6714    -8.9891     5.6158 O.2     
  27 C27           -3.6986    -9.9449     7.1157 C.3     
  28 C28           -5.0455   -10.2349     7.7263 C.ar    
  29 C29           -5.8305   -11.2519     7.2152 C.ar    
  30 C30           -7.0656   -11.5196     7.7731 C.ar    
  31 C31           -7.5181   -10.7671     8.8472 C.ar    
  32 C32           -6.7285    -9.7472     9.3582 C.ar    
  33 C33           -5.4918    -9.4871     8.8003 C.ar    
  34 O34           -8.7329   -11.0283     9.3976 O.3     
  35 C35           -9.1340   -10.2134    10.5008 C.3     
  36 Cl36           4.5097    -6.4196    -1.6570 Cl      
  37 H37            2.6993    -4.5520    -0.4987 H       
  38 H38           -1.0406    -6.5448    -0.9924 H       
  39 H39            0.0943    -8.4327    -2.0850 H       
  40 H40            2.5274   -10.4781    -3.3966 H       
  41 H41           -0.3188    -3.5999    -0.7828 H       
  42 H42           -4.2503    -4.3846     1.0179 H       
  43 H43           -0.8277    -7.5129     3.7858 H       
  44 H44           -5.0526    -7.3723     4.5257 H       
  45 H45           -5.3319    -5.7275     2.7447 H       
  46 H46            1.4188    -4.2188     1.6492 H       
  47 H47            1.8736    -3.1631     0.2902 H       
  48 H48            0.5327    -2.7014     1.3658 H       
  49 H49           -4.7281    -8.6021     5.8331 H       
  50 H50           -3.2799   -10.8642     6.7061 H       
  51 H51           -3.0301    -9.5506     7.8809 H       
  52 H52           -5.4780   -11.8372     6.3788 H       
  53 H53           -7.6785   -12.3139     7.3733 H       
  54 H54           -7.0785    -9.1600    10.1943 H       
  55 H55           -4.8747    -8.6964     9.2008 H       
  56 H56           -8.4151   -10.3219    11.3130 H       
  57 H57           -9.1728    -9.1703    10.1869 H       
  58 H58          -10.1200   -10.5265    10.8442 H       
@<TRIPOS>BOND
   1    1    2 1
   2    1    8 2
   3    1    9 1
   4    2    3 ar
   5    2    7 ar
   6    3    4 ar
   7    3   36 1
   8    4    5 ar
   9    4   37 1
  10    5    6 ar
  11    5   10 1
  12    6    7 ar
  13    6   38 1
  14    7   39 1
  15    9   40 1
  16   10   13 1
  17   10   23 1
  18   10   41 1
  19   11   12 am
  20   11   20 1
  21   11   42 1
  22   12   13 am
  23   12   22 2
  24   13   14 am
  25   14   15 1
  26   14   21 2
  27   15   16 ar
  28   15   20 ar
  29   16   17 ar
  30   16   43 1
  31   17   18 ar
  32   17   24 1
  33   18   19 ar
  34   18   44 1
  35   19   20 ar
  36   19   45 1
  37   23   46 1
  38   23   47 1
  39   23   48 1
  40   24   25 am
  41   24   26 2
  42   25   27 1
  43   25   49 1
  44   27   28 1
  45   27   50 1
  46   27   51 1
  47   28   29 ar
  48   28   33 ar
  49   29   30 ar
  50   29   52 1
  51   30   31 ar
  52   30   53 1
  53   31   32 ar
  54   31   34 1
  55   32   33 ar
  56   32   54 1
  57   33   55 1
  58   34   35 1
  59   35   56 1
  60   35   57 1
  61   35   58 1

#	End of record

