#	Name: ASD02408394
#	Creating user name:	WinNT
#	Creation time:	15. 06. 2019 20:21

#	Modifying user name:	WinNT
#	Modification time:	15. 06. 2019 20:21

#	Program:	/corina/corina34_cracker 3.40 0067  02.08.2006

@<TRIPOS>MOLECULE
ASD02408394
  27   28    0    0    0
SMALL
NO_CHARGES


@<TRIPOS>ATOM
   1 C1            -0.1488     1.3172    -0.0935 C.2     
   2 C2            -0.0421    -0.0937    -0.0868 C.2     
   3 C3             1.1494     1.8233    -0.1043 C.2     
   4 N4             1.9881     0.7642    -0.1041 N.pl3   
   5 N5             1.2231    -0.4070    -0.0931 N.2     
   6 C6             3.3894     0.8281    -0.1136 C.ar    
   7 C7             4.0416     1.6541    -1.0161 C.ar    
   8 C8             5.4227     1.7156    -1.0239 C.ar    
   9 C9             6.1578     0.9547    -0.1338 C.ar    
  10 C10            5.5163     0.1279     0.7693 C.ar    
  11 C11            4.1307     0.0650     0.7886 C.ar    
  12 N12            1.5103     3.1555    -0.1140 N.pl3   
  13 C13           -1.3908     2.0991    -0.0952 C.2     
  14 N14           -2.5829     1.4703    -0.0895 N.am    
  15 O15           -1.3443     3.3150    -0.1017 O.2     
  16 N16            3.4794    -0.7701     1.7014 N.pl3   
  17 H17           -0.8669    -0.7908    -0.0779 H       
  18 H18            3.4706     2.2494    -1.7133 H       
  19 H19            5.9289     2.3597    -1.7277 H       
  20 H20            7.2366     1.0063    -0.1444 H       
  21 H21            6.0936    -0.4656     1.4627 H       
  22 H22            0.8306     3.8415    -0.2050 H       
  23 H23            2.4437     3.4057    -0.0299 H       
  24 H24           -2.6199     0.5010    -0.0844 H       
  25 H25           -3.4038     1.9870    -0.0906 H       
  26 H26            3.9941    -1.3750     2.2581 H       
  27 H27            2.5127    -0.7445     1.7779 H       
@<TRIPOS>BOND
   1    1    2 1
   2    1    3 2
   3    1   13 1
   4    2    5 2
   5    2   17 1
   6    3    4 1
   7    3   12 1
   8    4    5 1
   9    4    6 1
  10    6    7 ar
  11    6   11 ar
  12    7    8 ar
  13    7   18 1
  14    8    9 ar
  15    8   19 1
  16    9   10 ar
  17    9   20 1
  18   10   11 ar
  19   10   21 1
  20   11   16 1
  21   12   22 1
  22   12   23 1
  23   13   14 am
  24   13   15 2
  25   14   24 1
  26   14   25 1
  27   16   26 1
  28   16   27 1

#	End of record

