#	Name: ASD00960095
#	Creating user name:	WinNT
#	Creation time:	15. 06. 2019 18:53

#	Modifying user name:	WinNT
#	Modification time:	15. 06. 2019 18:53

#	Program:	/corina/corina34_cracker 3.40 0067  02.08.2006

@<TRIPOS>MOLECULE
ASD00960095
  35   37    0    0    0
SMALL
NO_CHARGES


@<TRIPOS>ATOM
   1 C1            -0.0189     1.5406     0.0105 C.3     
   2 C2             0.0021    -0.0041     0.0020 C.3     
   3 O3            -1.0943    -0.3927     0.8581 O.3     
   4 C4            -1.0543     0.5287     1.9695 C.3     
   5 C5            -2.4127     0.5753     2.6719 C.3     
   6 C6            -0.2140    -0.5240    -1.3959 C.2     
   7 C7             0.7558    -0.6900    -2.3337 C.2     
   8 N8            -1.3972    -0.9035    -1.9131 N.pl3   
   9 C9            -1.1938    -1.3198    -3.2155 C.2     
  10 C10            0.1541    -1.1900    -3.4900 C.2     
  11 N11           -2.7001    -0.9466    -1.3972 N.2     
  12 C12           -3.6835    -1.3715    -2.1415 C.2     
  13 N13           -3.5025    -1.7760    -3.3976 N.2     
  14 C14           -2.3067    -1.7672    -3.9633 C.2     
  15 N15           -2.1474    -2.1916    -5.2671 N.pl3   
  16 C16           -0.7298     1.8991     1.3346 C.3     
  17 I17            1.1109    -1.6533    -5.2952 I       
  18 O18           -2.7268    -0.7197     3.1880 O.3     
  19 N19           -0.0051     0.1412     2.9157 N.2     
  20 N20           -0.0541    -0.8561     3.4318 N.1     
  21 N21           -0.1032    -1.8534     3.9479 N.pl3   
  22 O22            1.3126     2.0594     0.0006 O.3     
  23 *23            1.4358     3.3105    -0.6380 Du      
  24 O24            0.1409     2.6504     2.1829 O.3     
  25 *25            0.0367     4.0469     2.0191 Du      
  26 H26           -0.5818     1.9196    -0.8424 H       
  27 H27            0.9460    -0.3730     0.4033 H       
  28 H28           -2.3737     1.2933     3.4911 H       
  29 H29           -3.1799     0.8784     1.9594 H       
  30 H30            1.8062    -0.4732    -2.2069 H       
  31 H31           -4.6794    -1.3965    -1.7244 H       
  32 H32           -2.9150    -2.4987    -5.7744 H       
  33 H33           -1.2678    -2.1826    -5.6760 H       
  34 H34           -1.6462     2.4554     1.1376 H       
  35 H35           -3.5766    -0.7645     3.6473 H       
@<TRIPOS>BOND
   1    1    2 1
   2    1   22 1
   3    1   16 1
   4    1   26 1
   5    2    3 1
   6    2    6 1
   7    2   27 1
   8    3    4 1
   9    4    5 1
  10    4   19 1
  11    4   16 1
  12    5   18 1
  13    5   28 1
  14    5   29 1
  15    6    7 2
  16    6    8 1
  17    7   10 1
  18    7   30 1
  19    8    9 1
  20    8   11 1
  21    9   10 2
  22    9   14 1
  23   10   17 1
  24   11   12 2
  25   12   13 1
  26   12   31 1
  27   13   14 2
  28   14   15 1
  29   15   32 1
  30   15   33 1
  31   16   24 1
  32   16   34 1
  33   18   35 1
  34   19   20 2
  35   20   21 2
  36   22   23 1
  37   24   25 1

#	End of record

