#	Name: ASD03092822
#	Creating user name:	WinNT
#	Creation time:	15. 06. 2019 20:33

#	Modifying user name:	WinNT
#	Modification time:	15. 06. 2019 20:33

#	Program:	/corina/corina34_cracker 3.40 0067  02.08.2006

@<TRIPOS>MOLECULE
ASD03092822
  53   55    0    0    0
SMALL
NO_CHARGES


@<TRIPOS>ATOM
   1 C1            -0.6695     1.3898    -1.7993 C.3     
   2 C2            -0.7268    -0.1379    -1.7372 C.3     
   3 C3            -1.5024    -0.5623    -0.5169 C.2     
   4 O4            -1.9648     0.2761     0.2310 O.2     
   5 C5            -1.6914    -1.9319    -0.2431 C.2     
   6 C6            -2.3818    -2.4361     0.8306 C.2     
   7 C7            -2.4320    -3.7986     0.8868 C.2     
   8 C8            -3.1437    -4.5398     1.9891 C.3     
   9 C9            -1.7867    -4.4395    -0.1348 C.2     
  10 S10           -1.0851    -3.2556    -1.2291 S.3     
  11 C11           -1.6976    -5.9042    -0.2970 C.ar    
  12 C12           -2.8461    -6.6921    -0.1776 C.ar    
  13 C13           -2.7669    -8.0594    -0.3289 C.ar    
  14 C14           -1.5453    -8.6629    -0.6010 C.ar    
  15 N15           -1.4705   -10.0445    -0.7534 N.3     
  16 C16           -1.9156   -10.7335     0.4653 C.3     
  17 C17           -2.2436   -10.4880    -1.9211 C.3     
  18 C18           -0.3883    -7.8808    -0.7225 C.ar    
  19 C19           -0.4679    -6.5020    -0.5754 C.ar    
  20 C20            0.9166    -8.5235    -1.0124 C.ar    
  21 C21            1.3417    -9.6152    -0.2574 C.ar    
  22 C22            2.5566   -10.2096    -0.5319 C.ar    
  23 C23            3.3519    -9.7238    -1.5541 C.ar    
  24 C24            2.9351    -8.6406    -2.3067 C.ar    
  25 C25            1.7197    -8.0417    -2.0445 C.ar    
  26 S26            4.9021   -10.4874    -1.8986 S.o2    
  27 N27            4.6240   -11.6808    -3.0125 N.am    
  28 O28            5.6963    -9.5064    -2.5513 O.2     
  29 O29            5.3022   -11.1408    -0.7018 O.2     
  30 H30           -0.1085     1.6968    -2.6820 H       
  31 H31           -1.6821     1.7893    -1.8553 H       
  32 H32           -0.1772     1.7716    -0.9049 H       
  33 H33           -1.2191    -0.5197    -2.6316 H       
  34 H34            0.2858    -0.5374    -1.6813 H       
  35 H35           -2.8482    -1.8045     1.5723 H       
  36 H36           -4.1528    -4.7932     1.6640 H       
  37 H37           -2.5976    -5.4534     2.2241 H       
  38 H38           -3.1955    -3.9091     2.8766 H       
  39 H39           -3.7980    -6.2280     0.0342 H       
  40 H40           -3.6570    -8.6639    -0.2353 H       
  41 H41           -2.9490   -10.4610     0.6798 H       
  42 H42           -1.8470   -11.8114     0.3189 H       
  43 H43           -1.2812   -10.4392     1.3013 H       
  44 H44           -1.8476   -10.0152    -2.8199 H       
  45 H45           -2.1680   -11.5711    -2.0169 H       
  46 H46           -3.2888   -10.2066    -1.7930 H       
  47 H47            0.4199    -5.8947    -0.6726 H       
  48 H48            0.7217    -9.9950     0.5412 H       
  49 H49            2.8872   -11.0554     0.0527 H       
  50 H50            3.5601    -8.2655    -3.1036 H       
  51 H51            1.3933    -7.1986    -2.6354 H       
  52 H52            5.3167   -11.9232    -3.6467 H       
  53 H53            3.7683   -12.1374    -3.0307 H       
@<TRIPOS>BOND
   1    1    2 1
   2    1   30 1
   3    1   31 1
   4    1   32 1
   5    2    3 1
   6    2   33 1
   7    2   34 1
   8    3    4 2
   9    3    5 1
  10    5   10 1
  11    5    6 2
  12    6    7 1
  13    6   35 1
  14    7    8 1
  15    7    9 2
  16    8   36 1
  17    8   37 1
  18    8   38 1
  19    9   10 1
  20    9   11 1
  21   11   19 ar
  22   11   12 ar
  23   12   13 ar
  24   12   39 1
  25   13   14 ar
  26   13   40 1
  27   14   15 1
  28   14   18 ar
  29   15   16 1
  30   15   17 1
  31   16   41 1
  32   16   42 1
  33   16   43 1
  34   17   44 1
  35   17   45 1
  36   17   46 1
  37   18   19 ar
  38   18   20 1
  39   19   47 1
  40   20   25 ar
  41   20   21 ar
  42   21   22 ar
  43   21   48 1
  44   22   23 ar
  45   22   49 1
  46   23   24 ar
  47   23   26 1
  48   24   25 ar
  49   24   50 1
  50   25   51 1
  51   26   27 am
  52   26   28 2
  53   26   29 2
  54   27   52 1
  55   27   53 1

#	End of record

