#	Name: ASD00310320
#	Creating user name:	WinNT
#	Creation time:	15. 06. 2019 18:34

#	Modifying user name:	WinNT
#	Modification time:	15. 06. 2019 18:34

#	Program:	/corina/corina34_cracker 3.40 0067  02.08.2006

@<TRIPOS>MOLECULE
ASD00310320
  24   25    0    0    0
SMALL
NO_CHARGES


@<TRIPOS>ATOM
   1 O1            -0.0174     1.4293     0.0099 O.3     
   2 C2             0.0021    -0.0041     0.0020 C.3     
   3 C3             1.3462     0.0598    -0.7338 C.3     
   4 C4             1.4159     1.4068    -0.0039 C.3     
   5 C5             2.3764    -0.9706    -0.2672 C.3     
   6 O6             3.5373    -0.8930    -1.0969 O.3     
   7 C7             4.5556    -1.7478    -0.8148 C.ar    
   8 C8             5.7124    -1.7267    -1.5802 C.ar    
   9 C9             6.7463    -2.5963    -1.2918 C.ar    
  10 C10            6.6284    -3.4883    -0.2409 C.ar    
  11 C11            5.4756    -3.5110     0.5236 C.ar    
  12 C12            4.4419    -2.6388     0.2424 C.ar    
  13 Br13           8.0447    -4.6785     0.1508 Br      
  14 H14            0.0742    -0.4414     0.9978 H       
  15 H15           -0.7972    -0.4444    -0.5941 H       
  16 H16            1.2660     0.1356    -1.8182 H       
  17 H17            1.8554     2.2026    -0.6052 H       
  18 H18            1.8572     1.3379     0.9904 H       
  19 H19            2.6541    -0.7643     0.7665 H       
  20 H20            1.9471    -1.9702    -0.3355 H       
  21 H21            5.8046    -1.0310    -2.4011 H       
  22 H22            7.6470    -2.5802    -1.8874 H       
  23 H23            5.3855    -4.2081     1.3436 H       
  24 H24            3.5439    -2.6538     0.8423 H       
@<TRIPOS>BOND
   1    1    2 1
   2    1    4 1
   3    2    3 1
   4    2   14 1
   5    2   15 1
   6    3    4 1
   7    3    5 1
   8    3   16 1
   9    4   17 1
  10    4   18 1
  11    5    6 1
  12    5   19 1
  13    5   20 1
  14    6    7 1
  15    7    8 ar
  16    7   12 ar
  17    8    9 ar
  18    8   21 1
  19    9   10 ar
  20    9   22 1
  21   10   11 ar
  22   10   13 1
  23   11   12 ar
  24   11   23 1
  25   12   24 1

#	End of record

