#	Name: ASD01901110
#	Creating user name:	WinNT
#	Creation time:	15. 06. 2019 19:53

#	Modifying user name:	WinNT
#	Modification time:	15. 06. 2019 19:53

#	Program:	/corina/corina34_cracker 3.40 0067  02.08.2006

@<TRIPOS>MOLECULE
ASD01901110
  34   36    0    0    0
SMALL
NO_CHARGES


@<TRIPOS>ATOM
   1 C1            -0.0184     1.5028     0.0103 C.2     
   2 C2             0.0021    -0.0041     0.0020 C.3     
   3 O3            -1.3386    -0.4987     0.0122 O.3     
   4 C4            -1.4983    -1.8483     0.0064 C.ar    
   5 C5            -2.7726    -2.3972     0.0157 C.ar    
   6 C6            -2.9323    -3.7692     0.0099 C.ar    
   7 C7            -1.8235    -4.5955    -0.0047 C.ar    
   8 C8            -0.5529    -4.0510    -0.0134 C.ar    
   9 C9            -0.3878    -2.6792    -0.0144 C.ar    
  10 C10           -3.9813    -1.4974     0.0325 C.3     
  11 C11           -4.9645    -1.6131    -1.1340 C.3     
  12 C12           -5.3472    -2.1530     0.2454 C.3     
  13 C13            2.4725     1.5850    -0.0130 C.ar    
  14 C14            1.2453     2.2555     0.0023 C.ar    
  15 C15            1.2403     3.6588     0.0094 C.ar    
  16 C16            2.4551     4.3180     0.0009 C.ar    
  17 C17            3.6277     3.5799    -0.0142 C.ar    
  18 N18            3.6028     2.2592    -0.0206 N.ar    
  19 Cl19           5.1552     4.4048    -0.0255 Cl      
  20 O20           -1.0766     2.0947     0.0185 O.2     
  21 H21            0.5123    -0.3556    -0.8948 H       
  22 H22            0.5293    -0.3651     0.8851 H       
  23 H23           -3.9239    -4.1970     0.0170 H       
  24 H24           -1.9505    -5.6680    -0.0088 H       
  25 H25            0.3115    -4.6984    -0.0244 H       
  26 H26            0.6050    -2.2543    -0.0260 H       
  27 H27           -3.8250    -0.5081     0.4626 H       
  28 H28           -5.4553    -0.7001    -1.4711 H       
  29 H29           -4.7371    -2.3402    -1.9137 H       
  30 H30           -5.3716    -3.2352     0.3734 H       
  31 H31           -6.0898    -1.5951     0.8160 H       
  32 H32            2.4929     0.5052    -0.0142 H       
  33 H33            0.3113     4.2094     0.0209 H       
  34 H34            2.4900     5.3975     0.0056 H       
@<TRIPOS>BOND
   1    1    2 1
   2    1   14 1
   3    1   20 2
   4    2    3 1
   5    2   21 1
   6    2   22 1
   7    3    4 1
   8    4    5 ar
   9    4    9 ar
  10    5    6 ar
  11    5   10 1
  12    6    7 ar
  13    6   23 1
  14    7    8 ar
  15    7   24 1
  16    8    9 ar
  17    8   25 1
  18    9   26 1
  19   10   11 1
  20   10   12 1
  21   10   27 1
  22   11   12 1
  23   11   28 1
  24   11   29 1
  25   12   30 1
  26   12   31 1
  27   13   14 ar
  28   13   18 ar
  29   13   32 1
  30   14   15 ar
  31   15   16 ar
  32   15   33 1
  33   16   17 ar
  34   16   34 1
  35   17   18 ar
  36   17   19 1

#	End of record

