#	Name: ASD01814846
#	Creating user name:	WinNT
#	Creation time:	15. 06. 2019 19:33

#	Modifying user name:	WinNT
#	Modification time:	15. 06. 2019 19:33

#	Program:	/corina/corina34_cracker 3.40 0067  02.08.2006

@<TRIPOS>MOLECULE
ASD01814846
  47   50    0    0    0
SMALL
NO_CHARGES


@<TRIPOS>ATOM
   1 C1            -0.6560     0.4120     0.2959 C.2     
   2 C2            -0.3710    -0.9601     0.3010 C.2     
   3 C3             0.9249    -1.3770     0.2121 C.2     
   4 C4             1.9521    -0.4234     0.1168 C.2     
   5 N5             1.6451     0.9101     0.1144 N.am    
   6 C6             0.3462     1.3150     0.2035 C.2     
   7 C7             3.2847    -0.8494     0.0254 C.2     
   8 C8             4.2901     0.0687    -0.0671 C.2     
   9 C9             3.9707     1.4392    -0.0698 C.2     
  10 C10            2.6211     1.8360     0.0238 C.2     
  11 O11            2.3351     3.0214     0.0218 O.2     
  12 C12            5.0311     2.4447    -0.1676 C.2     
  13 O13            4.7183     3.7569    -0.1697 O.3     
  14 O14            6.1939     2.0965    -0.2470 O.2     
  15 C15            3.6070    -2.3215     0.0299 C.3     
  16 N16            3.7264    -2.8008    -1.3536 N.3     
  17 C17            4.2695    -4.1657    -1.3930 C.3     
  18 C18            4.3036    -4.6567    -2.8423 C.3     
  19 N19            5.1256    -3.7424    -3.6473 N.3     
  20 C20            4.5824    -2.3774    -3.6078 C.3     
  21 C21            4.5484    -1.8865    -2.1586 C.3     
  22 H22            5.2802    -4.1669    -0.9848 H       
  23 C23            5.2386    -4.1961    -4.9570 C.ar    
  24 N24            4.2062    -4.7861    -5.5383 N.ar    
  25 C25            6.4351    -4.0206    -5.6473 C.ar    
  26 C26            6.5330    -4.4767    -6.9501 C.ar    
  27 C27            5.4277    -5.0949    -7.5205 C.ar    
  28 C28            4.2714    -5.2306    -6.7794 C.ar    
  29 H29            4.7331    -5.6579    -2.8770 H       
  30 H30            3.2898    -4.6814    -3.2418 H       
  31 Cl31           7.7850    -3.2399    -4.8844 Cl      
  32 H32           -1.6799     0.7493     0.3614 H       
  33 H33           -1.1710    -1.6818     0.3752 H       
  34 H34            1.1592    -2.4313     0.2153 H       
  35 H35            0.1150     2.3700     0.2007 H       
  36 H36            5.3188    -0.2527    -0.1371 H       
  37 H37            5.4522     4.3831    -0.2361 H       
  38 H38            4.5486    -2.4857     0.5538 H       
  39 H39            2.8099    -2.8664     0.5356 H       
  40 H40            3.6368    -4.8262    -0.8001 H       
  41 H41            5.2152    -1.7170    -4.2007 H       
  42 H42            3.5718    -2.3763    -4.0160 H       
  43 H43            4.1189    -0.8853    -2.1238 H       
  44 H44            5.5622    -1.8617    -1.7591 H       
  45 H45            7.4479    -4.3545    -7.5107 H       
  46 H46            5.4714    -5.4620    -8.5352 H       
  47 H47            3.4099    -5.7108    -7.2194 H       
@<TRIPOS>BOND
   1    1    2 1
   2    1    6 2
   3    1   32 1
   4    2    3 2
   5    2   33 1
   6    3    4 1
   7    3   34 1
   8    4    5 1
   9    4    7 2
  10    5    6 1
  11    5   10 am
  12    6   35 1
  13    7   15 1
  14    7    8 1
  15    8    9 2
  16    8   36 1
  17    9   10 1
  18    9   12 1
  19   10   11 2
  20   12   13 1
  21   12   14 2
  22   13   37 1
  23   15   16 1
  24   15   38 1
  25   15   39 1
  26   16   17 1
  27   16   21 1
  28   17   18 1
  29   17   22 1
  30   17   40 1
  31   18   19 1
  32   18   29 1
  33   18   30 1
  34   19   20 1
  35   19   23 1
  36   20   21 1
  37   20   41 1
  38   20   42 1
  39   21   43 1
  40   21   44 1
  41   23   24 ar
  42   23   25 ar
  43   24   28 ar
  44   25   26 ar
  45   25   31 1
  46   26   27 ar
  47   26   45 1
  48   27   28 ar
  49   27   46 1
  50   28   47 1

#	End of record

