#	Name: ASD00310274
#	Creating user name:	WinNT
#	Creation time:	15. 06. 2019 18:34

#	Modifying user name:	WinNT
#	Modification time:	15. 06. 2019 18:34

#	Program:	/corina/corina34_cracker 3.40 0067  02.08.2006

@<TRIPOS>MOLECULE
ASD00310274
  36   38    0    0    0
SMALL
NO_CHARGES


@<TRIPOS>ATOM
   1 N1            -0.0163     1.3499     0.0095 N.pl3   
   2 C2             0.0021    -0.0041     0.0020 C.2     
   3 C3             1.2922    -0.4483    -0.0127 C.2     
   4 C4             2.1476     0.7538    -0.0144 C.ar    
   5 C5             3.5234     0.9580    -0.0264 C.ar    
   6 C6             4.0244     2.2535    -0.0243 C.ar    
   7 C7             3.1470     3.3434    -0.0100 C.ar    
   8 C8             1.7855     3.1434     0.0023 C.ar    
   9 C9             1.2698     1.8501    -0.0001 C.ar    
  10 C10            1.7402    -1.8454    -0.0240 C.2     
  11 O11            2.9286    -2.1028    -0.0364 O.2     
  12 O12            0.8342    -2.8441    -0.0208 O.3     
  13 C13            5.4902     2.4817    -0.0365 C.ar    
  14 C14            6.1131     3.0881     1.0559 C.ar    
  15 C15            7.4782     3.2981     1.0404 C.ar    
  16 C16            8.2290     2.9069    -0.0595 C.ar    
  17 C17            7.6113     2.3042    -1.1468 C.ar    
  18 C18            6.2493     2.0861    -1.1359 C.ar    
  19 O19            9.5718     3.1148    -0.0721 O.3     
  20 C20           10.2834     2.6878    -1.2354 C.3     
  21 F21            5.3820     3.4691     2.1262 F       
  22 Cl22           3.7806     4.9597    -0.0074 Cl      
  23 C23            1.3493    -4.2016    -0.0326 C.3     
  24 H24           -0.8206     1.8921     0.0163 H       
  25 H25           -0.8729    -0.6372     0.0073 H       
  26 H26            4.1978     0.1146    -0.0371 H       
  27 H27            1.1160     3.9908     0.0136 H       
  28 H28            7.9616     3.7674     1.8845 H       
  29 H29            8.1988     2.0019    -2.0011 H       
  30 H30            5.7710     1.6131    -1.9808 H       
  31 H31           10.1520     1.6140    -1.3681 H       
  32 H32            9.8977     3.2118    -2.1100 H       
  33 H33           11.3433     2.9121    -1.1157 H       
  34 H34            1.9503    -4.3544    -0.9290 H       
  35 H35            1.9668    -4.3636     0.8509 H       
  36 H36            0.5174    -4.9059    -0.0285 H       
@<TRIPOS>BOND
   1    1    2 1
   2    1    9 1
   3    1   24 1
   4    2    3 2
   5    2   25 1
   6    3    4 1
   7    3   10 1
   8    4    5 ar
   9    4    9 ar
  10    5    6 ar
  11    5   26 1
  12    6    7 ar
  13    6   13 1
  14    7    8 ar
  15    7   22 1
  16    8    9 ar
  17    8   27 1
  18   10   11 2
  19   10   12 1
  20   12   23 1
  21   13   14 ar
  22   13   18 ar
  23   14   15 ar
  24   14   21 1
  25   15   16 ar
  26   15   28 1
  27   16   17 ar
  28   16   19 1
  29   17   18 ar
  30   17   29 1
  31   18   30 1
  32   19   20 1
  33   20   31 1
  34   20   32 1
  35   20   33 1
  36   23   34 1
  37   23   35 1
  38   23   36 1

#	End of record

