#	Name: ASD05323021
#	Creating user name:	WinNT
#	Creation time:	15. 06. 2019 20:59

#	Modifying user name:	WinNT
#	Modification time:	15. 06. 2019 20:59

#	Program:	/corina/corina34_cracker 3.40 0067  02.08.2006

@<TRIPOS>MOLECULE
ASD05323021
  43   44    0    0    0
SMALL
NO_CHARGES


@<TRIPOS>ATOM
   1 C1            -0.0187     1.5258     0.0104 C.3     
   2 C2             0.0021    -0.0041     0.0020 C.3     
   3 P3             1.6916     2.1568    -0.0025 P.3     
   4 O4             2.4039     1.7481    -1.3873 O.3     
   5 O5             1.6730     3.7605     0.1386 O.3     
   6 O6             2.4423     1.5705     1.1303 O.2     
   7 O7            -2.1040    -0.1936    -1.2201 O.3     
   8 C8            -1.4333    -0.5336     0.0129 C.3     
   9 C9            -1.4365    -2.0780     0.0510 C.3     
  10 C10           -2.6298    -2.4732    -0.8473 C.3     
  11 C11           -3.2065    -1.1210    -1.3219 C.3     
  12 O12           -1.6384    -2.5455     1.3862 O.3     
  13 C13           -4.9612    -1.0201    -3.0011 C.2     
  14 N14           -5.4075    -1.1049    -4.2681 N.am    
  15 C15           -4.5542    -1.3939    -5.2713 C.2     
  16 C16           -3.1854    -1.6068    -4.9794 C.2     
  17 C17           -2.7646    -1.5153    -3.6996 C.2     
  18 N18           -3.6629    -1.2203    -2.7105 N.am    
  19 O19           -4.9574    -1.4716    -6.4178 O.2     
  20 O20           -5.7414    -0.7541    -2.1073 O.2     
  21 N21           -3.6325    -3.2172    -0.0733 N.3     
  22 C22            2.8611     4.5445     0.2648 C.3     
  23 C23            2.4864     6.0236     0.3778 C.3     
  24 H24           -0.5459     1.8868    -0.8726 H       
  25 H25           -0.5289     1.8773     0.9072 H       
  26 H26            0.5123    -0.3556    -0.8948 H       
  27 H27            0.5293    -0.3651     0.8851 H       
  28 H28            1.9645     2.0987    -2.1741 H       
  29 H29           -1.9804    -0.1319     0.8657 H       
  30 H30           -0.5052    -2.4720    -0.3559 H       
  31 H31           -2.2885    -3.0626    -1.6983 H       
  32 H32           -4.0256    -0.8093    -0.6738 H       
  33 H33           -1.6492    -3.5089     1.4681 H       
  34 H34           -6.3468    -0.9577    -4.4602 H       
  35 H35           -2.4871    -1.8397    -5.7696 H       
  36 H36           -1.7242    -1.6745    -3.4579 H       
  37 H37           -3.2438    -4.0728     0.2941 H       
  38 H38           -4.0146    -2.6468     0.6661 H       
  39 H39            3.4053     4.2382     1.1582 H       
  40 H40            3.4900     4.3950    -0.6129 H       
  41 H41            1.9422     6.3298    -0.5155 H       
  42 H42            1.8575     6.1730     1.2555 H       
  43 H43            3.3926     6.6216     0.4741 H       
@<TRIPOS>BOND
   1    1    2 1
   2    1    3 1
   3    1   24 1
   4    1   25 1
   5    2    8 1
   6    2   26 1
   7    2   27 1
   8    3    4 1
   9    3    5 1
  10    3    6 2
  11    4   28 1
  12    5   22 1
  13    7    8 1
  14    7   11 1
  15    8    9 1
  16    8   29 1
  17    9   10 1
  18    9   12 1
  19    9   30 1
  20   10   11 1
  21   10   21 1
  22   10   31 1
  23   11   18 1
  24   11   32 1
  25   12   33 1
  26   13   14 am
  27   13   18 am
  28   13   20 2
  29   14   15 am
  30   14   34 1
  31   15   16 1
  32   15   19 2
  33   16   17 2
  34   16   35 1
  35   17   18 1
  36   17   36 1
  37   21   37 1
  38   21   38 1
  39   22   23 1
  40   22   39 1
  41   22   40 1
  42   23   41 1
  43   23   42 1
  44   23   43 1

#	End of record

