#	Name: ASD04880442
#	Creating user name:	WinNT
#	Creation time:	15. 06. 2019 20:53

#	Modifying user name:	WinNT
#	Modification time:	15. 06. 2019 20:53

#	Program:	/corina/corina34_cracker 3.40 0067  02.08.2006

@<TRIPOS>MOLECULE
ASD04880442
  45   47    0    0    0
SMALL
NO_CHARGES


@<TRIPOS>ATOM
   1 C1            -0.0184     1.5028     0.0103 C.2     
   2 C2             0.0021    -0.0041     0.0020 C.3     
   3 N3             1.1395     2.1925     0.0030 N.am    
   4 N4             2.4158     1.6335    -0.0127 N.2     
   5 C5             3.3697     2.4994    -0.0178 C.2     
   6 C6             2.7859     3.8941    -0.0048 C.3     
   7 C7             1.2624     3.6589     0.0037 C.3     
   8 C8             4.8087     2.1797    -0.0331 C.ar    
   9 C9             5.7546     3.2081    -0.0369 C.ar    
  10 C10            7.1002     2.9069    -0.0513 C.ar    
  11 C11            7.5182     1.5840    -0.0625 C.ar    
  12 C12            6.5807     0.5535    -0.0589 C.ar    
  13 C13            5.2302     0.8476    -0.0382 C.ar    
  14 O14            8.8459     1.2927    -0.0776 O.3     
  15 C15            9.7525     2.3973    -0.0810 C.3     
  16 O16           -1.0771     2.0950     0.0185 O.2     
  17 O17            6.9944    -0.7420    -0.0699 O.3     
  18 C18            5.9789    -1.7473    -0.0654 C.3     
  19 C19           -1.4117    -0.5257     0.0127 C.ar    
  20 C20           -2.0706    -0.7581    -1.1813 C.ar    
  21 C21           -3.3689    -1.2371    -1.1807 C.ar    
  22 C22           -4.0148    -1.4864     0.0122 C.ar    
  23 C23           -3.3555    -1.2544     1.2213 C.ar    
  24 C24           -2.0440    -0.7757     1.2132 C.ar    
  25 C25           -4.0199    -1.5110     2.4636 C.1     
  26 N26           -4.5469    -1.7146     3.4491 N.1     
  27 H27            0.5123    -0.3556    -0.8948 H       
  28 H28            0.5293    -0.3651     0.8851 H       
  29 H29            3.0981     4.4309     0.8910 H       
  30 H30            3.0802     4.4402    -0.9010 H       
  31 H31            0.8021     4.0829    -0.8887 H       
  32 H32            0.8158     4.0807     0.9042 H       
  33 H33            5.4320     4.2387    -0.0289 H       
  34 H34            7.8303     3.7026    -0.0541 H       
  35 H35            4.5025     0.0496    -0.0305 H       
  36 H36           10.7773     2.0262    -0.0934 H       
  37 H37            9.5767     3.0088    -0.9660 H       
  38 H38            9.5949     2.9994     0.8138 H       
  39 H39            6.4436    -2.7332    -0.0753 H       
  40 H40            5.3679    -1.6426     0.8312 H       
  41 H41            5.3505    -1.6330    -0.9486 H       
  42 H42           -1.5696    -0.5646    -2.1182 H       
  43 H43           -3.8778    -1.4157    -2.1164 H       
  44 H44           -5.0282    -1.8598     0.0113 H       
  45 H45           -1.5284    -0.5942     2.1446 H       
@<TRIPOS>BOND
   1    1    2 1
   2    1    3 am
   3    1   16 2
   4    2   19 1
   5    2   27 1
   6    2   28 1
   7    3    4 1
   8    3    7 1
   9    4    5 2
  10    5    6 1
  11    5    8 1
  12    6    7 1
  13    6   29 1
  14    6   30 1
  15    7   31 1
  16    7   32 1
  17    8    9 ar
  18    8   13 ar
  19    9   10 ar
  20    9   33 1
  21   10   11 ar
  22   10   34 1
  23   11   12 ar
  24   11   14 1
  25   12   13 ar
  26   12   17 1
  27   13   35 1
  28   14   15 1
  29   15   36 1
  30   15   37 1
  31   15   38 1
  32   17   18 1
  33   18   39 1
  34   18   40 1
  35   18   41 1
  36   19   20 ar
  37   19   24 ar
  38   20   21 ar
  39   20   42 1
  40   21   22 ar
  41   21   43 1
  42   22   23 ar
  43   22   44 1
  44   23   24 ar
  45   23   25 1
  46   24   45 1
  47   25   26 3

#	End of record

