#	Name: ASD01890296
#	Creating user name:	WinNT
#	Creation time:	15. 06. 2019 19:50

#	Modifying user name:	WinNT
#	Modification time:	15. 06. 2019 19:50

#	Program:	/corina/corina34_cracker 3.40 0067  02.08.2006

@<TRIPOS>MOLECULE
ASD01890296
  47   49    0    0    0
SMALL
NO_CHARGES


@<TRIPOS>ATOM
   1 C1            -0.0279     1.4091    -0.0247 C.2     
   2 C2            -0.0040    -0.0083    -0.0450 C.2     
   3 C3             1.1769    -0.6638    -0.1148 C.2     
   4 C4             2.4521     0.1041    -0.3497 C.3     
   5 C5             3.0837     0.4677     0.9956 C.3     
   6 O6             1.0134     2.0340     0.0460 O.2     
   7 O7            -1.2054     2.0650    -0.0894 O.3     
   8 C8             1.2164    -2.1221     0.0380 C.ar    
   9 C9             1.4071    -2.9482    -1.0665 C.ar    
  10 C10            1.4434    -4.3267    -0.9177 C.ar    
  11 C11            1.2961    -4.9229     0.2980 C.ar    
  12 C12            1.1001    -4.1521     1.4563 C.ar    
  13 C13            0.9461    -4.7541     2.7171 C.ar    
  14 C14            0.7580    -3.9738     3.8171 C.ar    
  15 C15            0.7156    -2.5857     3.7130 C.ar    
  16 C16            0.8613    -1.9691     2.5055 C.ar    
  17 C17            1.0624    -2.7400     1.3552 C.ar    
  18 C18            4.3589     1.2356     0.7606 C.ar    
  19 C19            4.3275     2.6143     0.6646 C.ar    
  20 C20            5.4968     3.3191     0.4492 C.ar    
  21 C21            6.6988     2.6445     0.3296 C.ar    
  22 C22            6.7295     1.2647     0.4258 C.ar    
  23 C23            5.5604     0.5614     0.6469 C.ar    
  24 Cl24           8.1677     3.5290     0.0584 Cl      
  25 C25           -1.1548     3.4929    -0.0642 C.3     
  26 C26           -2.5755     4.0550    -0.1458 C.3     
  27 H27           -0.9288    -0.5646    -0.0046 H       
  28 H28            3.1462    -0.5108    -0.9226 H       
  29 H29            2.2304     1.0154    -0.9052 H       
  30 H30            2.3896     1.0827     1.5684 H       
  31 H31            3.3053    -0.4435     1.5510 H       
  32 H32            1.5274    -2.5120    -2.0471 H       
  33 H33            1.5924    -4.9449    -1.7906 H       
  34 H34            1.3300    -5.9998     0.3724 H       
  35 H35            0.9764    -5.8294     2.8129 H       
  36 H36            0.6396    -4.4384     4.7848 H       
  37 H37            0.5648    -1.9893     4.6007 H       
  38 H38            0.8261    -0.8918     2.4380 H       
  39 H39            3.3892     3.1408     0.7576 H       
  40 H40            5.4721     4.3962     0.3739 H       
  41 H41            7.6675     0.7375     0.3326 H       
  42 H42            5.5849    -0.5154     0.7264 H       
  43 H43           -0.6859     3.8235     0.8626 H       
  44 H44           -0.5731     3.8509    -0.9136 H       
  45 H45           -3.0444     3.7243    -1.0726 H       
  46 H46           -3.1572     3.6970     0.7036 H       
  47 H47           -2.5369     5.1441    -0.1266 H       
@<TRIPOS>BOND
   1    1    2 1
   2    1    6 2
   3    1    7 1
   4    2    3 2
   5    2   27 1
   6    3    4 1
   7    3    8 1
   8    4    5 1
   9    4   28 1
  10    4   29 1
  11    5   18 1
  12    5   30 1
  13    5   31 1
  14    7   25 1
  15    8    9 ar
  16    8   17 ar
  17    9   10 ar
  18    9   32 1
  19   10   11 ar
  20   10   33 1
  21   11   12 ar
  22   11   34 1
  23   12   13 ar
  24   12   17 ar
  25   13   14 ar
  26   13   35 1
  27   14   15 ar
  28   14   36 1
  29   15   16 ar
  30   15   37 1
  31   16   17 ar
  32   16   38 1
  33   18   19 ar
  34   18   23 ar
  35   19   20 ar
  36   19   39 1
  37   20   21 ar
  38   20   40 1
  39   21   22 ar
  40   21   24 1
  41   22   23 ar
  42   22   41 1
  43   23   42 1
  44   25   26 1
  45   25   43 1
  46   25   44 1
  47   26   45 1
  48   26   46 1
  49   26   47 1

#	End of record

