#	Name: ASD00100018
#	Creating user name:	WinNT
#	Creation time:	15. 06. 2019 18:30

#	Modifying user name:	WinNT
#	Modification time:	15. 06. 2019 18:30

#	Program:	/corina/corina34_cracker 3.40 0067  02.08.2006

@<TRIPOS>MOLECULE
ASD00100018
  64   68    0    0    0
SMALL
NO_CHARGES


@<TRIPOS>ATOM
   1 C1            -0.0187     1.5258     0.0104 C.3     
   2 C2             0.0021    -0.0041     0.0020 C.3     
   3 C3             1.3165     0.7789    -0.0063 C.3     
   4 C4            -0.4420     2.2229    -1.2568 C.2     
   5 O5            -0.3149     1.6661    -2.3267 O.2     
   6 N6            -0.9617     3.4652    -1.2012 N.am    
   7 C7            -1.3732     4.1429    -2.4331 C.3     
   8 C8            -2.4457     5.1846    -2.1083 C.3     
   9 C9            -2.8755     5.8924    -3.3949 C.3     
  10 C10           -1.6653     6.5854    -4.0243 C.3     
  11 C11           -0.5929     5.5437    -4.3491 C.3     
  12 C12           -0.1631     4.8359    -3.0625 C.3     
  13 C13           -2.0951     7.2932    -5.3109 C.3     
  14 C14           -0.9155     8.0886    -5.8738 C.3     
  15 N15           -1.3282     8.7681    -7.1091 N.3     
  16 C16           -0.3053     9.7250    -7.5502 C.3     
  17 C17           -0.8287    10.5157    -8.7514 C.3     
  18 C18           -1.1695     9.5453    -9.8857 C.3     
  19 C19           -2.2007     8.5298    -9.3856 C.3     
  20 C20           -1.6375     7.7967    -8.1660 C.3     
  21 O21           -3.0457    11.6008   -12.2682 O.3     
  22 C22           -2.8458    11.0716   -11.0485 C.2     
  23 C23           -1.7417    10.3124   -11.0498 C.2     
  24 C24           -1.2013    10.3785   -12.4130 C.ar    
  25 C25           -2.0802    11.2119   -13.1253 C.ar    
  26 C26           -0.0937     9.8216   -13.0501 C.ar    
  27 C27            0.1335    10.0934   -14.3813 C.ar    
  28 C28           -0.7337    10.9161   -15.0851 C.ar    
  29 C29           -1.8327    11.4731   -14.4667 C.ar    
  30 O30           -0.3970     2.1738     1.2266 O.3     
  31 H31           -0.2728    -0.5162     0.9241 H       
  32 H32           -0.2904    -0.5063    -0.9201 H       
  33 H33            1.8888     0.7918    -0.9339 H       
  34 H34            1.9064     0.7818     0.9103 H       
  35 H35           -1.0634     3.9105    -0.3455 H       
  36 H36           -1.7775     3.4112    -3.1327 H       
  37 H37           -3.3078     4.6908    -1.6599 H       
  38 H38           -2.0415     5.9162    -1.4087 H       
  39 H39           -3.2797     5.1607    -4.0944 H       
  40 H40           -3.6395     6.6345    -3.1635 H       
  41 H41           -1.2611     7.3171    -3.3247 H       
  42 H42           -0.9971     4.8120    -5.0487 H       
  43 H43            0.2692     6.0374    -4.7975 H       
  44 H44            0.2411     5.5676    -2.3630 H       
  45 H45            0.6009     4.0938    -3.2939 H       
  46 H46           -2.4163     6.5524    -6.0431 H       
  47 H47           -2.9203     7.9715    -5.0942 H       
  48 H48           -0.5943     8.8293    -5.1415 H       
  49 H49           -0.0903     7.4103    -6.0905 H       
  50 H50           -0.0752    10.4118    -6.7357 H       
  51 H51            0.5976     9.1854    -7.8361 H       
  52 H52           -1.7238    11.0665    -8.4624 H       
  53 H53           -0.0634    11.2149    -9.0882 H       
  54 H54           -0.2667     9.0224   -10.2013 H       
  55 H55           -3.1174     9.0493    -9.1066 H       
  56 H56           -2.4155     7.8102   -10.1756 H       
  57 H57           -0.7283     7.2662    -8.4490 H       
  58 H58           -2.3749     7.0830    -7.7988 H       
  59 H59           -3.4829    11.2347   -10.1919 H       
  60 H60            0.5824     9.1812   -12.5032 H       
  61 H61            0.9906     9.6644   -14.8791 H       
  62 H62           -0.5457    11.1228   -16.1284 H       
  63 H63           -2.5009    12.1120   -15.0250 H       
  64 H64           -0.3929     3.1395     1.1754 H       
@<TRIPOS>BOND
   1    1    2 1
   2    1    3 1
   3    1    4 1
   4    1   30 1
   5    2    3 1
   6    2   31 1
   7    2   32 1
   8    3   33 1
   9    3   34 1
  10    4    5 2
  11    4    6 am
  12    6    7 1
  13    6   35 1
  14    7    8 1
  15    7   12 1
  16    7   36 1
  17    8    9 1
  18    8   37 1
  19    8   38 1
  20    9   10 1
  21    9   39 1
  22    9   40 1
  23   10   11 1
  24   10   13 1
  25   10   41 1
  26   11   12 1
  27   11   42 1
  28   11   43 1
  29   12   44 1
  30   12   45 1
  31   13   14 1
  32   13   46 1
  33   13   47 1
  34   14   15 1
  35   14   48 1
  36   14   49 1
  37   15   16 1
  38   15   20 1
  39   16   17 1
  40   16   50 1
  41   16   51 1
  42   17   18 1
  43   17   52 1
  44   17   53 1
  45   18   19 1
  46   18   23 1
  47   18   54 1
  48   19   20 1
  49   19   55 1
  50   19   56 1
  51   20   57 1
  52   20   58 1
  53   21   22 1
  54   21   25 1
  55   22   23 2
  56   22   59 1
  57   23   24 1
  58   24   25 ar
  59   24   26 ar
  60   25   29 ar
  61   26   27 ar
  62   26   60 1
  63   27   28 ar
  64   27   61 1
  65   28   29 ar
  66   28   62 1
  67   29   63 1
  68   30   64 1

#	End of record

