#	Name: ASD01882463
#	Creating user name:	WinNT
#	Creation time:	15. 06. 2019 19:44

#	Modifying user name:	WinNT
#	Modification time:	15. 06. 2019 19:44

#	Program:	/corina/corina34_cracker 3.40 0067  02.08.2006

@<TRIPOS>MOLECULE
ASD01882463
  45   48    0    0    0
SMALL
NO_CHARGES


@<TRIPOS>ATOM
   1 C1            -0.0170     1.4050     0.0098 C.2     
   2 C2             0.0021    -0.0041     0.0020 C.2     
   3 C3             1.1991    -0.6521    -0.0129 C.2     
   4 C4             2.3930     0.0893    -0.0203 C.2     
   5 C5             2.3588     1.4383    -0.0123 C.2     
   6 N6             1.1665     2.1012     0.0022 N.pl3   
   7 N7            -0.4824     3.4846     0.0225 N.2     
   8 N8            -0.9895     2.3019     0.0186 N.2     
   9 C9             0.8240     3.4179     0.0121 C.2     
  10 C10            1.2438    -2.1584    -0.0209 C.3     
  11 N11            1.3656    -2.6373    -1.4043 N.3     
  12 C12            1.6494    -4.0776    -1.4395 C.3     
  13 C13            1.9131    -4.5118    -2.8831 C.3     
  14 C14            0.6841    -4.1937    -3.7392 C.3     
  15 C15            0.3812    -2.6956    -3.6467 C.3     
  16 C16            0.1619    -2.3141    -2.1809 C.3     
  17 C17            0.9644    -4.5697    -5.1956 C.3     
  18 F18            1.2480    -5.9371    -5.2780 F       
  19 F19           -0.1591    -4.2786    -5.9768 F       
  20 F20            2.0604    -3.8370    -5.6638 F       
  21 C21            1.7759     4.5862     0.0100 C.3     
  22 C22            2.0856     4.9891    -1.4332 C.3     
  23 C23            2.9459     6.2357    -1.6495 C.3     
  24 C24            3.5319     4.8469    -1.9116 C.3     
  25 Cl25          -1.4832    -0.9027     0.0120 Cl      
  26 H26            3.3434    -0.4236    -0.0322 H       
  27 H27            3.2826     1.9976    -0.0178 H       
  28 H28            2.1017    -2.4995     0.5585 H       
  29 H29            0.3279    -2.5514     0.4204 H       
  30 H30            2.5280    -4.2897    -0.8302 H       
  31 H31            0.7936    -4.6261    -1.0459 H       
  32 H32            2.7773    -3.9737    -3.2728 H       
  33 H33            2.1084    -5.5838    -2.9108 H       
  34 H34           -0.1714    -4.7616    -3.3736 H       
  35 H35            1.2213    -2.1290    -4.0484 H       
  36 H36           -0.5180    -2.4701    -4.2199 H       
  37 H37           -0.6869    -2.8709    -1.7838 H       
  38 H38           -0.0399    -1.2453    -2.1101 H       
  39 H39            1.3200     5.4273     0.5322 H       
  40 H40            2.6998     4.3030     0.5143 H       
  41 H41            1.2942     4.7920    -2.1564 H       
  42 H42            2.7208     6.8585    -2.5153 H       
  43 H43            3.2913     6.7687    -0.7637 H       
  44 H44            4.2628     4.4662    -1.1982 H       
  45 H45            3.6923     4.5560    -2.9497 H       
@<TRIPOS>BOND
   1    1    2 1
   2    1    6 1
   3    1    8 2
   4    2    3 2
   5    2   25 1
   6    3    4 1
   7    3   10 1
   8    4    5 2
   9    4   26 1
  10    5    6 1
  11    5   27 1
  12    6    9 1
  13    7    8 1
  14    7    9 2
  15    9   21 1
  16   10   11 1
  17   10   28 1
  18   10   29 1
  19   11   12 1
  20   11   16 1
  21   12   13 1
  22   12   30 1
  23   12   31 1
  24   13   14 1
  25   13   32 1
  26   13   33 1
  27   14   15 1
  28   14   17 1
  29   14   34 1
  30   15   16 1
  31   15   35 1
  32   15   36 1
  33   16   37 1
  34   16   38 1
  35   17   18 1
  36   17   19 1
  37   17   20 1
  38   21   22 1
  39   21   39 1
  40   21   40 1
  41   22   23 1
  42   22   24 1
  43   22   41 1
  44   23   24 1
  45   23   42 1
  46   23   43 1
  47   24   44 1
  48   24   45 1

#	End of record

