#	Name: ASD09116220
#	Creating user name:	WinNT
#	Creation time:	15. 06. 2019 21:21

#	Modifying user name:	WinNT
#	Modification time:	15. 06. 2019 21:21

#	Program:	/corina/corina34_cracker 3.40 0067  02.08.2006

@<TRIPOS>MOLECULE
ASD09116220
  63   68    0    0    0
SMALL
NO_CHARGES


@<TRIPOS>ATOM
   1 N1            -0.0328     1.4240     0.1731 N.2     
   2 N2            -0.0267     0.0279     0.3233 N.pl3   
   3 C3             1.2199     1.8110     0.1413 C.2     
   4 N4             2.0110     0.7385     0.2629 N.2     
   5 C5             1.2735    -0.3456     0.3737 C.2     
   6 N6             1.6572     3.1282     0.0026 N.pl3   
   7 C7             3.0226     3.4265     0.0970 C.ar    
   8 C8             3.5508     4.5183    -0.5757 C.ar    
   9 C9             5.6669     4.0707     0.2306 C.ar    
  10 C10            5.2074     2.9646     0.9370 C.ar    
  11 C11            3.8662     2.6330     0.8727 C.ar    
  12 C12           -1.1410    -0.8093     0.4053 C.ar    
  13 N13           -1.0396    -2.0830     0.0559 N.ar    
  14 N14           -2.0368    -2.8929     0.1031 N.ar    
  15 C15           -3.2335    -2.4972     0.5062 C.ar    
  16 C16           -3.4300    -1.1750     0.9149 C.ar    
  17 C17           -2.3616    -0.3050     0.8613 C.ar    
  18 C18           -4.3967    -3.4144     0.5102 C.ar    
  19 C19           -5.5901    -2.9929    -0.0782 C.ar    
  20 C20           -5.6477    -1.6470    -0.7474 C.3     
  21 C21           -5.7491    -0.5199     0.2766 C.3     
  22 C22           -4.7736    -0.7462     1.4285 C.3     
  23 C23           -4.3147    -4.6751     1.0911 C.ar    
  24 C24           -5.4245    -5.4978     1.0987 C.ar    
  25 C25           -6.6112    -5.0682     0.5330 C.ar    
  26 C26           -6.6945    -3.8173    -0.0537 C.ar    
  27 N27            1.7434    -1.6373     0.5170 N.pl3   
  28 N28            4.8360     4.8051    -0.4920 N.ar    
  29 N29            7.0157     4.4134     0.2891 N.3     
  30 C30            7.2917     5.6065    -0.5232 C.3     
  31 C31            7.8636     3.2880    -0.1282 C.3     
  32 C32            9.3357     3.6773     0.0257 C.3     
  33 N33            9.6117     4.8704    -0.7866 N.3     
  34 C34            8.7638     5.9958    -0.3693 C.3     
  35 C35           11.0342     5.2318    -0.7249 C.3     
  36 H36            1.0158     3.8377    -0.1592 H       
  37 H37            2.9028     5.1405    -1.1752 H       
  38 H38            5.8894     2.3715     1.5282 H       
  39 H39            3.4814     1.7795     1.4112 H       
  40 H40           -2.4664     0.7296     1.1530 H       
  41 H41           -4.7464    -1.5067    -1.3441 H       
  42 H42           -6.5174    -1.6120    -1.4036 H       
  43 H43           -5.5173     0.4281    -0.2090 H       
  44 H44           -6.7653    -0.4820     0.6692 H       
  45 H45           -5.1693    -1.5197     2.0866 H       
  46 H46           -4.6629     0.1804     1.9918 H       
  47 H47           -3.3881    -5.0095     1.5337 H       
  48 H48           -5.3651    -6.4786     1.5470 H       
  49 H49           -7.4778    -5.7124     0.5492 H       
  50 H50           -7.6246    -3.4874    -0.4926 H       
  51 H51            2.6982    -1.8059     0.5428 H       
  52 H52            1.1183    -2.3752     0.5918 H       
  53 H53            7.0803     5.3903    -1.5705 H       
  54 H54            6.6608     6.4293    -0.1870 H       
  55 H55            7.6496     2.4205     0.4961 H       
  56 H56            7.6587     3.0454    -1.1709 H       
  57 H57            9.5471     3.8935     1.0729 H       
  58 H58            9.9665     2.8545    -0.3106 H       
  59 H59            8.9777     6.8633    -0.9937 H       
  60 H60            8.9687     6.2384     0.6734 H       
  61 H61           11.6358     4.4050    -1.1026 H       
  62 H62           11.2108     6.1178    -1.3348 H       
  63 H63           11.3115     5.4407     0.3083 H       
@<TRIPOS>BOND
   1    1    2 1
   2    1    3 2
   3    2   12 1
   4    2    5 1
   5    3    4 1
   6    3    6 1
   7    4    5 2
   8    5   27 1
   9    6    7 1
  10    6   36 1
  11    7    8 ar
  12    7   11 ar
  13    8   28 ar
  14    8   37 1
  15    9   10 ar
  16    9   29 1
  17    9   28 ar
  18   10   11 ar
  19   10   38 1
  20   11   39 1
  21   12   13 ar
  22   12   17 ar
  23   13   14 ar
  24   14   15 ar
  25   15   16 ar
  26   15   18 1
  27   16   17 ar
  28   16   22 1
  29   17   40 1
  30   18   19 ar
  31   18   23 ar
  32   19   20 1
  33   19   26 ar
  34   20   21 1
  35   20   41 1
  36   20   42 1
  37   21   22 1
  38   21   43 1
  39   21   44 1
  40   22   45 1
  41   22   46 1
  42   23   24 ar
  43   23   47 1
  44   24   25 ar
  45   24   48 1
  46   25   26 ar
  47   25   49 1
  48   26   50 1
  49   27   51 1
  50   27   52 1
  51   29   30 1
  52   29   31 1
  53   30   34 1
  54   30   53 1
  55   30   54 1
  56   31   32 1
  57   31   55 1
  58   31   56 1
  59   32   33 1
  60   32   57 1
  61   32   58 1
  62   33   34 1
  63   33   35 1
  64   34   59 1
  65   34   60 1
  66   35   61 1
  67   35   62 1
  68   35   63 1

#	End of record

