#	Name: ASD01200193
#	Creating user name:	WinNT
#	Creation time:	15. 06. 2019 19:08

#	Modifying user name:	WinNT
#	Modification time:	15. 06. 2019 19:08

#	Program:	/corina/corina34_cracker 3.40 0067  02.08.2006

@<TRIPOS>MOLECULE
ASD01200193
  48   50    0    0    0
SMALL
NO_CHARGES


@<TRIPOS>ATOM
   1 C1             0.0762     1.5650     0.2121 C.2     
   2 C2             0.0502     0.0584     0.1854 C.3     
   3 O3             1.1209     2.1566     0.0399 O.2     
   4 N4            -1.0624     2.2550     0.4216 N.am    
   5 S5            -2.4026     4.6432     0.7008 S.3     
   6 C6            -1.0384     3.6446     0.4462 C.2     
   7 N7             0.0216     4.3719     0.2801 N.2     
   8 C8            -0.1374     5.6810     0.3350 C.2     
   9 C9            -1.3915     6.0788     0.5581 C.2     
  10 O10            1.3686    -0.4365    -0.0575 O.3     
  11 N11            1.0192    -2.5244    -1.1373 N.am    
  12 C12            1.4921    -1.8534     0.0807 C.3     
  13 C13            2.9462    -2.2382     0.2254 C.2     
  14 C14            3.2420    -3.0326    -0.7985 C.2     
  15 C15            2.0580    -3.2144    -1.6444 C.2     
  16 O16            2.0201    -3.8895    -2.6553 O.2     
  17 C17            4.5916    -3.6536    -1.0516 C.3     
  18 C18            3.8835    -1.8032     1.3223 C.3     
  19 C19           -0.3344    -2.4599    -1.6938 C.3     
  20 C20           -1.1229    -3.6605    -1.2376 C.ar    
  21 C21           -1.9301    -3.5714    -0.1186 C.ar    
  22 C22           -2.6539    -4.6704     0.3017 C.ar    
  23 C23           -2.5702    -5.8643    -0.4000 C.ar    
  24 C24           -1.7595    -5.9511    -1.5225 C.ar    
  25 C25           -1.0422    -4.8475    -1.9420 C.ar    
  26 O26           -3.2809    -6.9470     0.0117 O.3     
  27 C27           -3.1462    -8.1428    -0.7591 C.3     
  28 H28           -0.3073    -0.3158     1.1447 H       
  29 H29           -0.6167    -0.2795    -0.6078 H       
  30 H30           -1.8986     1.7819     0.5553 H       
  31 H31            0.6813     6.3742     0.2099 H       
  32 H32           -1.7278     7.1020     0.6373 H       
  33 H33            0.9233    -2.1975     0.9445 H       
  34 H34            4.6443    -4.6228    -0.5556 H       
  35 H35            4.7352    -3.7860    -2.1239 H       
  36 H36            5.3712    -3.0013    -0.6583 H       
  37 H37            3.8372    -2.5176     2.1442 H       
  38 H38            4.9014    -1.7606     0.9348 H       
  39 H39            3.5898    -0.8168     1.6813 H       
  40 H40           -0.8260    -1.5501    -1.3493 H       
  41 H41           -0.2797    -2.4535    -2.7824 H       
  42 H42           -1.9946    -2.6419     0.4276 H       
  43 H43           -3.2840    -4.6005     1.1760 H       
  44 H44           -1.6927    -6.8793    -2.0705 H       
  45 H45           -0.4146    -4.9132    -2.8185 H       
  46 H46           -3.4681    -7.9532    -1.7831 H       
  47 H47           -2.1033    -8.4596    -0.7589 H       
  48 H48           -3.7644    -8.9276    -0.3232 H       
@<TRIPOS>BOND
   1    1    2 1
   2    1    3 2
   3    1    4 am
   4    2   10 1
   5    2   28 1
   6    2   29 1
   7    4    6 1
   8    4   30 1
   9    5    6 1
  10    5    9 1
  11    6    7 2
  12    7    8 1
  13    8    9 2
  14    8   31 1
  15    9   32 1
  16   10   12 1
  17   11   12 1
  18   11   15 am
  19   11   19 1
  20   12   13 1
  21   12   33 1
  22   13   14 2
  23   13   18 1
  24   14   15 1
  25   14   17 1
  26   15   16 2
  27   17   34 1
  28   17   35 1
  29   17   36 1
  30   18   37 1
  31   18   38 1
  32   18   39 1
  33   19   20 1
  34   19   40 1
  35   19   41 1
  36   20   21 ar
  37   20   25 ar
  38   21   22 ar
  39   21   42 1
  40   22   23 ar
  41   22   43 1
  42   23   24 ar
  43   23   26 1
  44   24   25 ar
  45   24   44 1
  46   25   45 1
  47   26   27 1
  48   27   46 1
  49   27   47 1
  50   27   48 1

#	End of record

