#	Name: ASD01170007
#	Creating user name:	WinNT
#	Creation time:	15. 06. 2019 19:06

#	Modifying user name:	WinNT
#	Modification time:	15. 06. 2019 19:06

#	Program:	/corina/corina34_cracker 3.40 0067  02.08.2006

@<TRIPOS>MOLECULE
ASD01170007
  42   45    0    0    0
SMALL
NO_CHARGES


@<TRIPOS>ATOM
   1 C1            -0.0167     1.3784     0.0096 C.ar    
   2 C2             0.0021    -0.0041     0.0020 C.ar    
   3 C3            -1.1787    -0.7179     0.0095 C.ar    
   4 C4            -2.4005    -0.0485     0.0248 C.ar    
   5 C5            -2.4061     1.3409     0.0327 C.ar    
   6 C6            -1.2268     2.0505     0.0306 C.ar    
   7 H7            -1.2455     3.1303     0.0372 H       
   8 H8             0.9103     1.9325     0.0037 H       
   9 N9            -3.7078    -0.5361     0.0342 N.am    
  10 C10           -4.6190     0.4513     0.0484 C.2     
  11 C11           -3.8581     1.7601     0.0488 C.3     
  12 O12           -4.1500     2.5087     1.2304 O.3     
  13 C13           -4.1943     2.5760    -1.2011 C.3     
  14 O14           -5.8246     0.3190     0.0590 O.2     
  15 C15           -5.6661     2.8997    -1.2088 C.2     
  16 C16           -6.2405     3.6803    -2.3123 C.ar    
  17 O17           -6.3762     2.5157    -0.3036 O.2     
  18 C18           -7.6077     3.9824    -2.3217 C.ar    
  19 C19           -8.1425     4.7166    -3.3608 C.ar    
  20 C20           -7.3207     5.1567    -4.4004 C.ar    
  21 C21           -5.9640     4.8569    -4.3907 C.ar    
  22 C22           -5.4218     4.1297    -3.3553 C.ar    
  23 O23           -9.4177     5.1390    -3.6058 O.3     
  24 C24           -9.2932     6.1847    -4.5876 C.3     
  25 O25           -8.0826     5.8516    -5.2919 O.3     
  26 C26            1.3196    -0.7354    -0.0150 C.3     
  27 C27           -1.1467    -2.2245     0.0006 C.3     
  28 H28           -3.9330    -1.4796     0.0307 H       
  29 H29           -5.0814     2.7523     1.3216 H       
  30 H30           -3.6187     3.5016    -1.1965 H       
  31 H31           -3.9449     1.9975    -2.0906 H       
  32 H32           -8.2427     3.6412    -1.5175 H       
  33 H33           -5.3316     5.1992    -5.1966 H       
  34 H34           -4.3668     3.8988    -3.3518 H       
  35 H35          -10.1459     6.1758    -5.2666 H       
  36 H36           -9.1990     7.1562    -4.1025 H       
  37 H37            1.6475    -0.9173     1.0085 H       
  38 H38            1.2002    -1.6871    -0.5328 H       
  39 H39            2.0641    -0.1309    -0.5330 H       
  40 H40           -1.1290    -2.5936     1.0260 H       
  41 H41           -2.0338    -2.6038    -0.5068 H       
  42 H42           -0.2543    -2.5659    -0.5239 H       
@<TRIPOS>BOND
   1    1    2 ar
   2    1    8 1
   3    1    6 ar
   4    2    3 ar
   5    2   26 1
   6    3    4 ar
   7    3   27 1
   8    4    5 ar
   9    4    9 1
  10    5    6 ar
  11    5   11 1
  12    6    7 1
  13    9   10 am
  14    9   28 1
  15   10   11 1
  16   10   14 2
  17   11   12 1
  18   11   13 1
  19   12   29 1
  20   13   15 1
  21   13   30 1
  22   13   31 1
  23   15   16 1
  24   15   17 2
  25   16   18 ar
  26   16   22 ar
  27   18   19 ar
  28   18   32 1
  29   19   20 ar
  30   19   23 1
  31   20   21 ar
  32   20   25 1
  33   21   22 ar
  34   21   33 1
  35   22   34 1
  36   23   24 1
  37   24   25 1
  38   24   35 1
  39   24   36 1
  40   26   37 1
  41   26   38 1
  42   26   39 1
  43   27   40 1
  44   27   41 1
  45   27   42 1

#	End of record

