#	Name: ASD01840158
#	Creating user name:	WinNT
#	Creation time:	15. 06. 2019 19:37

#	Modifying user name:	WinNT
#	Modification time:	15. 06. 2019 19:37

#	Program:	/corina/corina34_cracker 3.40 0067  02.08.2006

@<TRIPOS>MOLECULE
ASD01840158
  50   53    0    0    0
SMALL
NO_CHARGES


@<TRIPOS>ATOM
   1 C1            -1.6170     1.6737    -0.5513 C.3     
   2 C2            -1.3345     0.1667    -0.4129 C.3     
   3 N3            -1.0112    -0.4917    -1.6810 N.am    
   4 C4            -1.2315    -1.8130    -1.8297 C.2     
   5 C5            -0.9089    -2.4702    -3.0954 C.2     
   6 O6            -1.6992    -2.4594    -0.9100 O.2     
   7 C7            -1.0931    -3.7907    -3.3430 C.2     
   8 C8            -0.6952    -4.2031    -4.6763 C.ar    
   9 C9            -0.1979    -3.1366    -5.4372 C.ar    
  10 S10           -0.2401    -1.6533    -4.4945 S.3     
  11 C11           -0.7379    -5.4765    -5.2884 C.ar    
  12 C12           -0.2904    -5.5864    -6.5866 C.ar    
  13 N13            0.1627    -4.5220    -7.2266 N.ar    
  14 N14            0.2081    -3.3604    -6.6892 N.ar    
  15 C15           -0.3168    -6.9244    -7.2794 C.3     
  16 C16           -1.2574    -6.6786    -4.5426 C.3     
  17 N17           -1.6160    -4.6699    -2.4044 N.pl3   
  18 C18           -0.0969     0.5757     0.4063 C.3     
  19 N19           -0.1738     1.8644    -0.3088 N.am    
  20 C20            0.7165     2.8283    -0.6167 C.2     
  21 O21            1.8775     2.7140    -0.2770 O.2     
  22 O22            0.3193     3.9178    -1.3008 O.3     
  23 C23            1.3319     4.9152    -1.5976 C.3     
  24 C24            0.7070     6.0534    -2.3625 C.ar    
  25 C25            0.1737     7.1325    -1.6828 C.ar    
  26 C26           -0.3996     8.1765    -2.3845 C.ar    
  27 C27           -0.4391     8.1416    -3.7658 C.ar    
  28 C28            0.0951     7.0629    -4.4455 C.ar    
  29 C29            0.6722     6.0209    -3.7440 C.ar    
  30 H30           -1.9377     1.9706    -1.5498 H       
  31 H31           -2.2520     2.0759     0.2381 H       
  32 H32           -2.0874    -0.3697     0.1646 H       
  33 H33           -0.6386     0.0233    -2.4137 H       
  34 H34           -1.2715    -7.0504    -7.7900 H       
  35 H35            0.4935    -6.9730    -8.0068 H       
  36 H36           -0.1915    -7.7177    -6.5424 H       
  37 H37           -2.3442    -6.7118    -4.6190 H       
  38 H38           -0.8348    -7.5853    -4.9756 H       
  39 H39           -0.9688    -6.6082    -3.4939 H       
  40 H40           -1.6100    -4.4348    -1.4634 H       
  41 H41           -1.9874    -5.5194    -2.6897 H       
  42 H42           -0.2854     0.6554     1.4769 H       
  43 H43            0.7960    -0.0040     0.1723 H       
  44 H44            1.7546     5.2921    -0.6662 H       
  45 H45            2.1215     4.4638    -2.1984 H       
  46 H46            0.2045     7.1597    -0.6036 H       
  47 H47           -0.8169     9.0192    -1.8534 H       
  48 H48           -0.8876     8.9569    -4.3140 H       
  49 H49            0.0639     7.0355    -5.5247 H       
  50 H50            1.0928     5.1799    -4.2752 H       
@<TRIPOS>BOND
   1    1    2 1
   2    1   19 1
   3    1   30 1
   4    1   31 1
   5    2    3 1
   6    2   18 1
   7    2   32 1
   8    3    4 am
   9    3   33 1
  10    4    5 1
  11    4    6 2
  12    5    7 2
  13    5   10 1
  14    7    8 1
  15    7   17 1
  16    8    9 ar
  17    8   11 ar
  18    9   10 1
  19    9   14 ar
  20   11   12 ar
  21   11   16 1
  22   12   13 ar
  23   12   15 1
  24   13   14 ar
  25   15   34 1
  26   15   35 1
  27   15   36 1
  28   16   37 1
  29   16   38 1
  30   16   39 1
  31   17   40 1
  32   17   41 1
  33   18   19 1
  34   18   42 1
  35   18   43 1
  36   19   20 am
  37   20   21 2
  38   20   22 1
  39   22   23 1
  40   23   24 1
  41   23   44 1
  42   23   45 1
  43   24   25 ar
  44   24   29 ar
  45   25   26 ar
  46   25   46 1
  47   26   27 ar
  48   26   47 1
  49   27   28 ar
  50   27   48 1
  51   28   29 ar
  52   28   49 1
  53   29   50 1

#	End of record

