#	Name: ASD01230884
#	Creating user name:	WinNT
#	Creation time:	15. 06. 2019 19:15

#	Modifying user name:	WinNT
#	Modification time:	15. 06. 2019 19:15

#	Program:	/corina/corina34_cracker 3.40 0067  02.08.2006

@<TRIPOS>MOLECULE
ASD01230884
  36   37    0    0    0
SMALL
NO_CHARGES


@<TRIPOS>ATOM
   1 C1            -0.0169     1.3917     0.0097 C.ar    
   2 C2             0.0021    -0.0041     0.0020 C.ar    
   3 C3             1.2237    -0.6598    -0.0131 C.ar    
   4 C4             2.3844     0.1030    -0.0201 C.ar    
   5 C5             2.2896     1.4794    -0.0118 C.ar    
   6 N6             1.1132     2.0791     0.0026 N.ar    
   7 N7            -1.2352     2.0658     0.0191 N.pl3   
   8 O8            -1.1603    -0.7102     0.0097 O.3     
   9 C9            -1.0538    -2.1352     0.0010 C.3     
  10 C10           -2.4332    -2.7421     0.0115 C.ar    
  11 C11           -3.0777    -3.0140    -1.1808 C.ar    
  12 C12           -4.3430    -3.5707    -1.1713 C.ar    
  13 C13           -4.9636    -3.8558     0.0306 C.ar    
  14 C14           -4.3187    -3.5847     1.2229 C.ar    
  15 C15           -3.0517    -3.0321     1.2133 C.ar    
  16 C16           -6.3433    -4.4618     0.0410 C.3     
  17 C17           -6.3007    -5.8150     0.7537 C.3     
  18 C18           -7.3051    -3.5274     0.7778 C.3     
  19 H19            1.2716    -1.7388    -0.0190 H       
  20 H20            3.3520    -0.3766    -0.0316 H       
  21 H21            3.1905     2.0750    -0.0168 H       
  22 H22           -2.0662     1.5656     0.0203 H       
  23 H23           -1.2528     3.0356     0.0245 H       
  24 H24           -0.5232    -2.4544    -0.8960 H       
  25 H25           -0.5056    -2.4640     0.8839 H       
  26 H26           -2.5928    -2.7912    -2.1198 H       
  27 H27           -4.8468    -3.7825    -2.1028 H       
  28 H28           -4.8037    -3.8072     2.1618 H       
  29 H29           -2.5463    -2.8237     2.1447 H       
  30 H30           -6.6865    -4.6016    -0.9841 H       
  31 H31           -5.6155    -6.4806     0.2288 H       
  32 H32           -5.9576    -5.6751     1.7787 H       
  33 H33           -7.2987    -6.2532     0.7612 H       
  34 H34           -7.3355    -2.5634     0.2700 H       
  35 H35           -8.3031    -3.9657     0.7853 H       
  36 H36           -6.9620    -3.3875     1.8028 H       
@<TRIPOS>BOND
   1    1    2 ar
   2    1    6 ar
   3    1    7 1
   4    2    3 ar
   5    2    8 1
   6    3    4 ar
   7    3   19 1
   8    4    5 ar
   9    4   20 1
  10    5    6 ar
  11    5   21 1
  12    7   22 1
  13    7   23 1
  14    8    9 1
  15    9   10 1
  16    9   24 1
  17    9   25 1
  18   10   11 ar
  19   10   15 ar
  20   11   12 ar
  21   11   26 1
  22   12   13 ar
  23   12   27 1
  24   13   14 ar
  25   13   16 1
  26   14   15 ar
  27   14   28 1
  28   15   29 1
  29   16   17 1
  30   16   18 1
  31   16   30 1
  32   17   31 1
  33   17   32 1
  34   17   33 1
  35   18   34 1
  36   18   35 1
  37   18   36 1

#	End of record

