#	Name: ASD03240984
#	Creating user name:	WinNT
#	Creation time:	15. 06. 2019 20:35

#	Modifying user name:	WinNT
#	Modification time:	15. 06. 2019 20:35

#	Program:	/corina/corina34_cracker 3.40 0067  02.08.2006

@<TRIPOS>MOLECULE
ASD03240984
  61   66    0    0    0
SMALL
NO_CHARGES


@<TRIPOS>ATOM
   1 C1            -0.0188     1.5336     0.0105 C.3     
   2 C2             0.0021    -0.0041     0.0020 C.3     
   3 C3             1.3815     0.0967    -0.6702 C.3     
   4 C4             1.5179     1.4762    -0.0045 C.3     
   5 O5            -0.5818     2.1049    -1.1721 O.3     
   6 C6             2.3746    -0.9181    -0.1653 C.ar    
   7 C7             3.3681    -1.3872    -1.0061 C.ar    
   8 C8             4.2807    -2.3160    -0.5495 C.ar    
   9 C9             4.2000    -2.7820     0.7628 C.ar    
  10 C10            3.1960    -2.3051     1.6056 C.ar    
  11 C11            2.2926    -1.3725     1.1389 C.ar    
  12 N12            6.9708    -6.5925    -0.0339 N.pl3   
  13 C13            7.8726    -7.5239     0.4047 C.2     
  14 N14            8.3297    -7.5330     1.6694 N.2     
  15 C15            7.9394    -6.6525     2.5545 C.2     
  16 C16            6.9770    -5.6264     2.1588 C.ar    
  17 C17            6.5215    -4.6583     3.0602 C.ar    
  18 C18            5.6043    -3.7197     2.5995 C.ar    
  19 C19            5.1759    -3.7791     1.2589 C.ar    
  20 N20            5.6297    -4.7109     0.4342 N.ar    
  21 C21            6.5009    -5.6224     0.8305 C.ar    
  22 C22            8.1507    -8.3508    -0.6752 C.2     
  23 C23            7.4046    -7.8994    -1.7566 C.2     
  24 N24            6.6988    -6.8598    -1.3811 N.2     
  25 C25            5.0846    -2.6694     3.5078 C.ar    
  26 C26            4.5784    -3.0149     4.7600 C.ar    
  27 C27            4.1151    -0.7079     5.2042 C.ar    
  28 C28            5.1056    -1.3322     3.1153 C.ar    
  29 C29            4.0965    -2.0331     5.6012 C.ar    
  30 C30            4.6209    -0.3586     3.9652 C.ar    
  31 C31            3.5486    -2.4050     6.9549 C.3     
  32 C32            7.4022    -8.5086    -3.1349 C.3     
  33 C33           -0.5973     2.1316     1.2944 C.3     
  34 N34            1.3186     0.1546    -2.1367 N.3     
  35 H35            0.0329    -0.4458     0.9980 H       
  36 H36           -0.7629    -0.4476    -0.6353 H       
  37 H37            1.9766     2.2276    -0.6471 H       
  38 H38            1.9632     1.4391     0.9897 H       
  39 H39           -0.5977     3.0718    -1.1727 H       
  40 H40            3.4293    -1.0259    -2.0220 H       
  41 H41            5.0555    -2.6817    -1.2070 H       
  42 H42            3.1282    -2.6625     2.6226 H       
  43 H43            1.5173    -0.9995     1.7917 H       
  44 H44            8.3228    -6.6836     3.5637 H       
  45 H45            6.8705    -4.6409     4.0821 H       
  46 H46            8.8258    -9.1938    -0.6746 H       
  47 H47            4.5631    -4.0491     5.0708 H       
  48 H48            3.7366     0.0572     5.8658 H       
  49 H49            5.5007    -1.0583     2.1482 H       
  50 H50            4.6325     0.6774     3.6604 H       
  51 H51            4.3529    -2.3856     7.6903 H       
  52 H52            2.7759    -1.6920     7.2426 H       
  53 H53            3.1205    -3.4065     6.9110 H       
  54 H54            6.6286    -9.2744    -3.1923 H       
  55 H55            7.2016    -7.7334    -3.8745 H       
  56 H56            8.3746    -8.9587    -3.3350 H       
  57 H57            0.0010     1.8098     2.1469 H       
  58 H58           -0.5800     3.2195     1.2285 H       
  59 H59           -1.6249     1.7917     1.4227 H       
  60 H60            2.2430     0.2199    -2.5360 H       
  61 H61            0.8193    -0.6393    -2.5089 H       
@<TRIPOS>BOND
   1    1    2 1
   2    1    4 1
   3    1    5 1
   4    1   33 1
   5    2    3 1
   6    2   35 1
   7    2   36 1
   8    3    4 1
   9    3    6 1
  10    3   34 1
  11    4   37 1
  12    4   38 1
  13    5   39 1
  14    6    7 ar
  15    6   11 ar
  16    7    8 ar
  17    7   40 1
  18    8    9 ar
  19    8   41 1
  20    9   10 ar
  21    9   19 1
  22   10   11 ar
  23   10   42 1
  24   11   43 1
  25   12   13 1
  26   12   21 1
  27   12   24 1
  28   13   14 1
  29   13   22 2
  30   14   15 2
  31   15   16 1
  32   15   44 1
  33   16   17 ar
  34   16   21 ar
  35   17   18 ar
  36   17   45 1
  37   18   19 ar
  38   18   25 1
  39   19   20 ar
  40   20   21 ar
  41   22   23 1
  42   22   46 1
  43   23   24 2
  44   23   32 1
  45   25   26 ar
  46   25   28 ar
  47   26   29 ar
  48   26   47 1
  49   27   29 ar
  50   27   30 ar
  51   27   48 1
  52   28   30 ar
  53   28   49 1
  54   29   31 1
  55   30   50 1
  56   31   51 1
  57   31   52 1
  58   31   53 1
  59   32   54 1
  60   32   55 1
  61   32   56 1
  62   33   57 1
  63   33   58 1
  64   33   59 1
  65   34   60 1
  66   34   61 1

#	End of record

