#	Name: ASD01885856
#	Creating user name:	WinNT
#	Creation time:	15. 06. 2019 19:50

#	Modifying user name:	WinNT
#	Modification time:	15. 06. 2019 19:50

#	Program:	/corina/corina34_cracker 3.40 0067  02.08.2006

@<TRIPOS>MOLECULE
ASD01885856
  44   47    0    0    0
SMALL
NO_CHARGES


@<TRIPOS>ATOM
   1 C1            -0.0170     1.4035     0.0098 C.ar    
   2 C2             1.2135     2.1078     0.0018 C.ar    
   3 C3             1.1956     3.5255     0.0097 C.ar    
   4 C4            -0.0394     4.1598     0.0249 C.ar    
   5 C5            -1.2085     3.3917     0.0319 C.ar    
   6 N6            -1.1706     2.0724     0.0299 N.ar    
   7 C7             0.0021    -0.0041     0.0020 C.ar    
   8 C8             1.1926    -0.6630    -0.0129 C.ar    
   9 C9             2.3992     0.0333    -0.0203 C.ar    
  10 C10            2.4198     1.3961    -0.0132 C.ar    
  11 C11            2.4545     4.3052     0.0024 C.2     
  12 C12           -2.5234     4.0771     0.0481 C.2     
  13 N13           -3.6605     3.3535     0.0551 N.am    
  14 O14           -2.5758     5.2909     0.0552 O.2     
  15 C15            1.2060    -2.1699    -0.0211 C.3     
  16 C16            3.5589     4.1144     0.8583 C.2     
  17 N17            4.4721     4.9933     0.5430 N.2     
  18 N18            3.9938     5.7737    -0.5162 N.pl3   
  19 C19            2.7612     5.3379    -0.8392 C.2     
  20 C20            1.1968    -2.6646    -1.4446 C.ar    
  21 C21            2.3830    -2.8864    -2.1249 C.ar    
  22 C22            2.3334    -3.3442    -3.4409 C.ar    
  23 N23            1.1660    -3.5644    -4.0350 N.ar    
  24 C24            0.0255    -3.3617    -3.4112 C.ar    
  25 C25            0.0010    -2.9134    -2.1009 C.ar    
  26 C26            3.5506    -3.5784    -4.1579 C.1     
  27 N27            4.5162    -3.7642    -4.7267 N.1     
  28 C28            4.7130     6.8724    -1.1656 C.3     
  29 H29           -0.0970     5.2382     0.0317 H       
  30 H30           -0.9245    -0.5588     0.0083 H       
  31 H31            3.3302    -0.5138    -0.0315 H       
  32 H32            3.3617     1.9246    -0.0197 H       
  33 H33           -3.6186     2.3844     0.0494 H       
  34 H34           -4.5206     3.8017     0.0657 H       
  35 H35            2.1040    -2.5280     0.4822 H       
  36 H36            0.3242    -2.5440     0.4992 H       
  37 H37            3.6358     3.3717     1.6386 H       
  38 H38            2.1289     5.7337    -1.6201 H       
  39 H39            3.3327    -2.7070    -1.6429 H       
  40 H40           -0.9044    -3.5514    -3.9267 H       
  41 H41           -0.9408    -2.7502    -1.5982 H       
  42 H42            5.2973     6.4819    -1.9989 H       
  43 H43            3.9974     7.6064    -1.5361 H       
  44 H44            5.3796     7.3464    -0.4451 H       
@<TRIPOS>BOND
   1    1    7 ar
   2    1    2 ar
   3    1    6 ar
   4    2    3 ar
   5    2   10 ar
   6    3    4 ar
   7    3   11 1
   8    4    5 ar
   9    4   29 1
  10    5    6 ar
  11    5   12 1
  12    7    8 ar
  13    7   30 1
  14    8    9 ar
  15    8   15 1
  16    9   10 ar
  17    9   31 1
  18   10   32 1
  19   11   19 2
  20   11   16 1
  21   12   13 am
  22   12   14 2
  23   13   33 1
  24   13   34 1
  25   15   20 1
  26   15   35 1
  27   15   36 1
  28   16   17 2
  29   16   37 1
  30   17   18 1
  31   18   28 1
  32   18   19 1
  33   19   38 1
  34   20   21 ar
  35   20   25 ar
  36   21   22 ar
  37   21   39 1
  38   22   23 ar
  39   22   26 1
  40   23   24 ar
  41   24   25 ar
  42   24   40 1
  43   25   41 1
  44   26   27 3
  45   28   42 1
  46   28   43 1
  47   28   44 1

#	End of record

