#	Name: ASD06350040
#	Creating user name:	WinNT
#	Creation time:	15. 06. 2019 21:06

#	Modifying user name:	WinNT
#	Modification time:	15. 06. 2019 21:06

#	Program:	/corina/corina34_cracker 3.40 0067  02.08.2006

@<TRIPOS>MOLECULE
ASD06350040
  47   50    0    0    0
SMALL
NO_CHARGES


@<TRIPOS>ATOM
   1 F1            -1.9748    -1.1744    -2.1302 F       
   2 C2            -1.7721     0.0903    -1.7005 C.ar    
   3 C3            -2.3975     0.5380    -0.5488 C.ar    
   4 C4            -2.1916     1.8303    -0.1079 C.ar    
   5 C5            -1.3564     2.6811    -0.8200 C.ar    
   6 C6            -0.7299     2.2302    -1.9744 C.ar    
   7 C7            -0.9346     0.9356    -2.4093 C.ar    
   8 N8            -1.1466     3.9925    -0.3748 N.am    
   9 C9             0.0857     4.3628     0.0529 C.2     
  10 C10            0.3284     5.6244     0.4917 C.2     
  11 C11           -0.6977     6.5689     0.5094 C.2     
  12 C12           -1.9670     6.1952     0.0711 C.2     
  13 C13           -2.1705     4.8670    -0.3834 C.2     
  14 O14           -3.2711     4.5158    -0.7721 O.2     
  15 C15           -3.0746     7.1625     0.0750 C.2     
  16 O16           -3.0045     8.1648     0.7612 O.2     
  17 N17           -4.1674     6.9387    -0.6814 N.am    
  18 C18           -5.2749     7.7894    -0.5804 C.ar    
  19 C19           -6.5562     7.2864    -0.7641 C.ar    
  20 C20           -7.6480     8.1258    -0.6644 C.ar    
  21 C21           -7.4650     9.4717    -0.3812 C.ar    
  22 C22           -6.1852     9.9749    -0.1976 C.ar    
  23 C23           -5.0930     9.1354    -0.2909 C.ar    
  24 O24           -8.5405    10.2979    -0.2841 O.3     
  25 C25           -9.2864    10.2412     0.8462 C.ar    
  26 N26           -8.9051     9.4802     1.8685 N.ar    
  27 C27           -9.6236     9.4186     2.9713 C.ar    
  28 N28          -10.7421    10.1002     3.1123 N.ar    
  29 C29          -11.1912    10.8847     2.1347 C.ar    
  30 C30          -10.4570    10.9816     0.9556 C.ar    
  31 N31          -12.3689    11.5988     2.2908 N.pl3   
  32 H32           -3.0469    -0.1240     0.0047 H       
  33 H33           -2.6800     2.1793     0.7899 H       
  34 H34           -0.0803     2.8904    -2.5298 H       
  35 H35           -0.4473     0.5844    -3.3068 H       
  36 H36            0.8888     3.6408     0.0446 H       
  37 H37            1.3177     5.8971     0.8282 H       
  38 H38           -0.5117     7.5742     0.8575 H       
  39 H39           -4.1866     6.1884    -1.2958 H       
  40 H40           -6.6987     6.2389    -0.9852 H       
  41 H41           -8.6445     7.7348    -0.8072 H       
  42 H42           -6.0435    11.0227     0.0224 H       
  43 H43           -4.0968     9.5272    -0.1480 H       
  44 H44           -9.2861     8.7910     3.7828 H       
  45 H45          -10.7934    11.6093     0.1436 H       
  46 H46          -12.8725    11.5290     3.1168 H       
  47 H47          -12.6895    12.1682     1.5739 H       
@<TRIPOS>BOND
   1    1    2 1
   2    2    3 ar
   3    2    7 ar
   4    3    4 ar
   5    3   32 1
   6    4    5 ar
   7    4   33 1
   8    5    6 ar
   9    5    8 1
  10    6    7 ar
  11    6   34 1
  12    7   35 1
  13    8    9 1
  14    8   13 am
  15    9   10 2
  16    9   36 1
  17   10   11 1
  18   10   37 1
  19   11   12 2
  20   11   38 1
  21   12   13 1
  22   12   15 1
  23   13   14 2
  24   15   16 2
  25   15   17 am
  26   17   18 1
  27   17   39 1
  28   18   19 ar
  29   18   23 ar
  30   19   20 ar
  31   19   40 1
  32   20   21 ar
  33   20   41 1
  34   21   22 ar
  35   21   24 1
  36   22   23 ar
  37   22   42 1
  38   23   43 1
  39   24   25 1
  40   25   26 ar
  41   25   30 ar
  42   26   27 ar
  43   27   28 ar
  44   27   44 1
  45   28   29 ar
  46   29   30 ar
  47   29   31 1
  48   30   45 1
  49   31   46 1
  50   31   47 1

#	End of record

