#	Name: ASD01885056
#	Creating user name:	WinNT
#	Creation time:	15. 06. 2019 19:49

#	Modifying user name:	WinNT
#	Modification time:	15. 06. 2019 19:49

#	Program:	/corina/corina34_cracker 3.40 0067  02.08.2006

@<TRIPOS>MOLECULE
ASD01885056
  47   50    0    0    0
SMALL
NO_CHARGES


@<TRIPOS>ATOM
   1 C1            -0.0816     1.4086     0.0446 C.3     
   2 C2            -0.0425    -0.1208     0.0601 C.3     
   3 H3            -1.0601    -0.5106     0.0848 H       
   4 C4             0.6669    -0.6258    -1.1956 C.3     
   5 N5             1.0126    -2.0406    -1.1128 N.am    
   6 C6             0.8469    -2.8542    -2.2474 C.2     
   7 C7             1.2249    -4.1380    -2.2764 C.2     
   8 S8             0.8594    -4.8249    -3.8536 S.3     
   9 C9             0.1956    -3.2921    -4.4034 C.2     
  10 C10            0.2730    -2.3908    -3.4235 C.2     
  11 C11           -0.3788    -3.0370    -5.7731 C.3     
  12 F12            0.6360    -2.5974    -6.6298 F       
  13 F13           -0.9324    -4.2200    -6.2743 F       
  14 F14           -1.3732    -2.0568    -5.6866 F       
  15 C15            1.4898    -2.5898     0.0297 C.2     
  16 O16            1.9639    -3.7101     0.0538 O.2     
  17 C17            1.4039    -1.7569     1.2406 C.2     
  18 C18            1.9487    -1.9295     2.4936 C.2     
  19 C19            1.5515    -0.8066     3.2594 C.2     
  20 C20            0.7935    -0.0138     2.4641 C.2     
  21 N21            0.6868    -0.5801     1.2469 N.pl3   
  22 C22            2.7813    -3.0610     2.9483 C.2     
  23 O23            3.0481    -3.9661     2.1816 O.2     
  24 N24            3.2454    -3.0905     4.2133 N.am    
  25 C25            3.9325    -4.2157     4.6800 C.ar    
  26 C26            3.5892    -5.4857     4.2353 C.ar    
  27 N27            4.2346    -6.5485     4.6729 N.ar    
  28 C28            5.2221    -6.4529     5.5414 C.ar    
  29 C29            5.6218    -5.2229     6.0305 C.ar    
  30 C30            4.9753    -4.0786     5.5935 C.ar    
  31 C31            5.3861    -2.7193     6.0980 C.3     
  32 H32            0.9363     1.7978     0.0199 H       
  33 H33           -0.6224     1.7493    -0.8382 H       
  34 H34           -0.5864     1.7682     0.9413 H       
  35 H35            0.0141    -0.4722    -2.0549 H       
  36 H36            1.5795    -0.0479    -1.3412 H       
  37 H37            1.6844    -4.6704    -1.4568 H       
  38 H38           -0.0807    -1.3768    -3.5373 H       
  39 H39            1.8066    -0.6165     4.2914 H       
  40 H40            0.3447     0.9230     2.7597 H       
  41 H41            3.1028    -2.3314     4.8001 H       
  42 H42            2.7852    -5.6038     3.5239 H       
  43 H43            5.7256    -7.3480     5.8758 H       
  44 H44            6.4317    -5.1548     6.7417 H       
  45 H45            4.8167    -2.4775     6.9955 H       
  46 H46            6.4503    -2.7255     6.3335 H       
  47 H47            5.1883    -1.9717     5.3298 H       
@<TRIPOS>BOND
   1    1    2 1
   2    1   32 1
   3    1   33 1
   4    1   34 1
   5    2    3 1
   6    2   21 1
   7    2    4 1
   8    4    5 1
   9    4   35 1
  10    4   36 1
  11    5    6 1
  12    5   15 am
  13    6   10 1
  14    6    7 2
  15    7    8 1
  16    7   37 1
  17    8    9 1
  18    9   10 2
  19    9   11 1
  20   10   38 1
  21   11   12 1
  22   11   13 1
  23   11   14 1
  24   15   16 2
  25   15   17 1
  26   17   21 1
  27   17   18 2
  28   18   19 1
  29   18   22 1
  30   19   20 2
  31   19   39 1
  32   20   21 1
  33   20   40 1
  34   22   23 2
  35   22   24 am
  36   24   25 1
  37   24   41 1
  38   25   30 ar
  39   25   26 ar
  40   26   27 ar
  41   26   42 1
  42   27   28 ar
  43   28   29 ar
  44   28   43 1
  45   29   30 ar
  46   29   44 1
  47   30   31 1
  48   31   45 1
  49   31   46 1
  50   31   47 1

#	End of record

