#	Name: ASD01028610
#	Creating user name:	WinNT
#	Creation time:	15. 06. 2019 18:57

#	Modifying user name:	WinNT
#	Modification time:	15. 06. 2019 18:57

#	Program:	/corina/corina34_cracker 3.40 0067  02.08.2006

@<TRIPOS>MOLECULE
ASD01028610
  32   32    0    0    0
SMALL
NO_CHARGES


@<TRIPOS>ATOM
   1 C1            -0.0184     1.5028     0.0103 C.2     
   2 C2             0.0021    -0.0041     0.0020 C.3     
   3 C3            -0.7241    -0.5171    -1.2431 C.3     
   4 O4             1.0197     2.1211     0.0037 O.2     
   5 O5            -1.1898     2.1580     0.0194 O.3     
   6 N6             5.3347    -1.7812    -0.1038 N.ar    
   7 C7             5.8167    -2.5343     0.8539 C.ar    
   8 C8             5.0324    -2.9299     1.9421 C.ar    
   9 C9             3.7253    -2.5273     2.0219 C.ar    
  10 C10            3.2161    -1.7190     0.9891 C.ar    
  11 C11            1.8860    -1.2688     1.0029 C.ar    
  12 C12            1.4295    -0.4870    -0.0142 C.ar    
  13 C13            2.2647    -0.1282    -1.0699 C.ar    
  14 C14            3.5588    -0.5475    -1.1158 C.ar    
  15 C15            4.0674    -1.3556    -0.0842 C.ar    
  16 O16            5.5653    -3.7119     2.9176 O.3     
  17 C17            6.9343    -4.0934     2.7678 C.3     
  18 H18           -0.4983    -0.3791     0.8948 H       
  19 H19           -0.7093    -1.6070    -1.2491 H       
  20 H20           -1.7565    -0.1678    -1.2314 H       
  21 H21           -0.2237    -0.1421    -2.1359 H       
  22 H22           -1.1523     3.1243     0.0245 H       
  23 H23            6.8457    -2.8579     0.8015 H       
  24 H24            3.1032    -2.8225     2.8539 H       
  25 H25            1.2290    -1.5407     1.8158 H       
  26 H26            1.8790     0.4926    -1.8651 H       
  27 H27            4.1925    -0.2607    -1.9419 H       
  28 H28            7.0554    -4.6564     1.8423 H       
  29 H29            7.5587    -3.2007     2.7344 H       
  30 H30            7.2330    -4.7143     3.6125 H       
  31 Cl31          12.5587     8.1243     8.6125 Cl      
  32 H32           12.5587     9.4943     8.6125 H       
@<TRIPOS>BOND
   1    1    2 1
   2    1    4 2
   3    1    5 1
   4    2    3 1
   5    2   12 1
   6    2   18 1
   7    3   19 1
   8    3   20 1
   9    3   21 1
  10    5   22 1
  11    6    7 ar
  12    6   15 ar
  13    7    8 ar
  14    7   23 1
  15    8    9 ar
  16    8   16 1
  17    9   10 ar
  18    9   24 1
  19   10   11 ar
  20   10   15 ar
  21   11   12 ar
  22   11   25 1
  23   12   13 ar
  24   13   14 ar
  25   13   26 1
  26   14   15 ar
  27   14   27 1
  28   16   17 1
  29   17   28 1
  30   17   29 1
  31   17   30 1
  32   31   32 1

#	End of record

