#	Name: ASD01000062
#	Creating user name:	WinNT
#	Creation time:	15. 06. 2019 18:54

#	Modifying user name:	WinNT
#	Modification time:	15. 06. 2019 18:54

#	Program:	/corina/corina34_cracker 3.40 0067  02.08.2006

@<TRIPOS>MOLECULE
ASD01000062
  51   53    0    0    0
SMALL
NO_CHARGES


@<TRIPOS>ATOM
   1 C1             1.9443     1.4060    -0.4573 C.ar    
   2 C2             1.8607     0.0427    -0.6707 C.ar    
   3 C3             1.3543    -0.7841     0.3153 C.ar    
   4 C4             0.9307    -0.2493     1.5163 C.ar    
   5 C5             1.0140     1.1186     1.7331 C.ar    
   6 C6             1.5223     1.9458     0.7425 C.ar    
   7 C7             1.2641    -2.2697     0.0791 C.3     
   8 C8             1.5659    -2.5677    -1.3670 C.ar    
   9 C9             2.5931    -3.4328    -1.6946 C.ar    
  10 C10            2.8700    -3.7061    -3.0211 C.ar    
  11 C11            2.1194    -3.1146    -4.0199 C.ar    
  12 C12            1.0916    -2.2502    -3.6922 C.ar    
  13 C13            0.8119    -1.9803    -2.3657 C.ar    
  14 S14            2.4656    -3.1240     1.1361 S.3     
  15 C15            4.0250    -2.2856     0.7415 C.3     
  16 C16            5.1761    -2.9785     1.4735 C.3     
  17 N17            6.4389    -2.2995     1.1539 N.3     
  18 O18            0.5974     1.6472     2.9138 O.3     
  19 C19           -0.1261    -2.7476     0.4109 C.ar    
  20 C20           -1.1994    -1.8834     0.2987 C.ar    
  21 C21           -0.3288    -4.0515     0.8221 C.ar    
  22 C22           -1.6042    -4.4900     1.1265 C.ar    
  23 C23           -2.6764    -3.6242     1.0201 C.ar    
  24 C24           -2.4743    -2.3217     0.6031 C.ar    
  25 C25           -1.8254    -5.9119     1.5738 C.3     
  26 C26           -1.7110    -5.9909     3.0975 C.3     
  27 H27            2.3440     2.0492    -1.2274 H       
  28 H28            2.1911    -0.3773    -1.6093 H       
  29 H29            0.5346    -0.8954     2.2858 H       
  30 H30            1.5885     3.0109     0.9090 H       
  31 H31            3.1795    -3.8949    -0.9142 H       
  32 H32            3.6729    -4.3815    -3.2771 H       
  33 H33            2.3362    -3.3276    -5.0563 H       
  34 H34            0.5054    -1.7878    -4.4726 H       
  35 H35            0.0090    -1.3049    -2.1097 H       
  36 H36            4.1993    -2.3296    -0.3336 H       
  37 H37            3.9677    -1.2441     1.0580 H       
  38 H38            5.0018    -2.9345     2.5486 H       
  39 H39            5.2333    -4.0200     1.1570 H       
  40 H40            7.2151    -2.7388     1.6258 H       
  41 H41            6.5915    -2.2701     0.1570 H       
  42 H42            1.2890     1.6981     3.5878 H       
  43 H43           -1.0415    -0.8657    -0.0265 H       
  44 H44            0.5090    -4.7280     0.9052 H       
  45 H45           -3.6727    -3.9668     1.2576 H       
  46 H46           -3.3121    -1.6452     0.5199 H       
  47 H47           -2.8187    -6.2391     1.2666 H       
  48 H48           -1.0736    -6.5570     1.1191 H       
  49 H49           -1.8710    -7.0194     3.4210 H       
  50 H50           -0.7177    -5.6638     3.4047 H       
  51 H51           -2.4628    -5.3459     3.5522 H       
@<TRIPOS>BOND
   1    1    2 ar
   2    1    6 ar
   3    1   27 1
   4    2    3 ar
   5    2   28 1
   6    3    4 ar
   7    3    7 1
   8    4    5 ar
   9    4   29 1
  10    5    6 ar
  11    5   18 1
  12    6   30 1
  13    7    8 1
  14    7   14 1
  15    7   19 1
  16    8    9 ar
  17    8   13 ar
  18    9   10 ar
  19    9   31 1
  20   10   11 ar
  21   10   32 1
  22   11   12 ar
  23   11   33 1
  24   12   13 ar
  25   12   34 1
  26   13   35 1
  27   14   15 1
  28   15   16 1
  29   15   36 1
  30   15   37 1
  31   16   17 1
  32   16   38 1
  33   16   39 1
  34   17   40 1
  35   17   41 1
  36   18   42 1
  37   19   20 ar
  38   19   21 ar
  39   20   24 ar
  40   20   43 1
  41   21   22 ar
  42   21   44 1
  43   22   23 ar
  44   22   25 1
  45   23   24 ar
  46   23   45 1
  47   24   46 1
  48   25   26 1
  49   25   47 1
  50   25   48 1
  51   26   49 1
  52   26   50 1
  53   26   51 1

#	End of record

