#	Name: ASD01916197
#	Creating user name:	WinNT
#	Creation time:	15. 06. 2019 20:06

#	Modifying user name:	WinNT
#	Modification time:	15. 06. 2019 20:06

#	Program:	/corina/corina34_cracker 3.40 0067  02.08.2006

@<TRIPOS>MOLECULE
ASD01916197
  39   42    0    0    0
SMALL
NO_CHARGES


@<TRIPOS>ATOM
   1 C1             1.0186    -0.1795    -0.5925 C.ar    
   2 C2             1.2918    -1.4414    -1.0872 C.ar    
   3 C3             2.5794    -1.7745    -1.4651 C.ar    
   4 C4             3.5963    -0.8467    -1.3495 C.ar    
   5 C5             3.3247     0.4203    -0.8538 C.ar    
   6 C6             2.0320     0.7519    -0.4749 C.ar    
   7 O7             4.3235     1.3347    -0.7387 O.3     
   8 C8             3.9708     2.6189    -0.2206 C.3     
   9 C9             5.1974     3.4927    -0.1659 C.2     
  10 N10            5.6280     4.2973    -1.1473 N.2     
  11 C11            6.7256     4.9095    -0.7575 C.2     
  12 N12            7.0207     4.4912     0.5191 N.am    
  13 C13            6.0407     3.5992     0.8808 C.2     
  14 C14            7.6129     5.8813    -1.4020 C.2     
  15 C15            8.6830     6.3249    -0.7146 C.2     
  16 N16            8.9196     5.8643     0.5605 N.am    
  17 C17            8.1042     4.9735     1.1503 C.2     
  18 O18            8.3533     4.5948     2.2786 O.2     
  19 C19           10.0375     6.3363     1.2613 C.ar    
  20 C20            9.9313     7.4684     2.0582 C.ar    
  21 C21           11.0342     7.9320     2.7481 C.ar    
  22 C22           12.2455     7.2686     2.6455 C.ar    
  23 C23           12.3535     6.1396     1.8509 C.ar    
  24 C24           11.2514     5.6692     1.1643 C.ar    
  25 F25           13.3233     7.7237     3.3211 F       
  26 Br26           5.9068     2.6841     2.5302 Br      
  27 H27            0.0112     0.0797    -0.3019 H       
  28 H28            0.4981    -2.1682    -1.1784 H       
  29 H29            2.7904    -2.7611    -1.8506 H       
  30 H30            4.6020    -1.1075    -1.6444 H       
  31 H31            1.8179     1.7377    -0.0891 H       
  32 H32            3.2250     3.0797    -0.8683 H       
  33 H33            3.5603     2.5056     0.7828 H       
  34 H34            7.4140     6.2329    -2.4036 H       
  35 H35            9.3550     7.0411    -1.1639 H       
  36 H36            8.9870     7.9863     2.1382 H       
  37 H37           10.9522     8.8128     3.3677 H       
  38 H38           13.2992     5.6240     1.7716 H       
  39 H39           11.3360     4.7887     0.5447 H       
@<TRIPOS>BOND
   1    1    2 ar
   2    1    6 ar
   3    1   27 1
   4    2    3 ar
   5    2   28 1
   6    3    4 ar
   7    3   29 1
   8    4    5 ar
   9    4   30 1
  10    5    6 ar
  11    5    7 1
  12    6   31 1
  13    7    8 1
  14    8    9 1
  15    8   32 1
  16    8   33 1
  17    9   10 1
  18    9   13 2
  19   10   11 2
  20   11   12 1
  21   11   14 1
  22   12   13 1
  23   12   17 am
  24   13   26 1
  25   14   15 2
  26   14   34 1
  27   15   16 1
  28   15   35 1
  29   16   17 am
  30   16   19 1
  31   17   18 2
  32   19   20 ar
  33   19   24 ar
  34   20   21 ar
  35   20   36 1
  36   21   22 ar
  37   21   37 1
  38   22   23 ar
  39   22   25 1
  40   23   24 ar
  41   23   38 1
  42   24   39 1

#	End of record

