#	Name: ASD03540269
#	Creating user name:	WinNT
#	Creation time:	15. 06. 2019 20:42

#	Modifying user name:	WinNT
#	Modification time:	15. 06. 2019 20:42

#	Program:	/corina/corina34_cracker 3.40 0067  02.08.2006

@<TRIPOS>MOLECULE
ASD03540269
  54   58    0    0    0
SMALL
NO_CHARGES


@<TRIPOS>ATOM
   1 C1            -0.0482     1.4578    -0.4172 C.2     
   2 C2            -0.0206    -0.0146    -0.3133 C.ar    
   3 C3            -0.2291    -0.6336     0.9219 C.ar    
   4 C4            -0.2025    -2.0074     1.0148 C.ar    
   5 C5             0.0317    -2.7780    -0.1180 C.ar    
   6 C6             0.2396    -2.1660    -1.3484 C.ar    
   7 C7             0.2084    -0.7930    -1.4507 C.ar    
   8 O8            -0.2525     2.1334     0.5727 O.2     
   9 N9             0.1586     2.0532    -1.6085 N.am    
  10 C10           -1.1859   -10.9363     1.0210 C.2     
  11 N11           -0.2768    -9.9635     0.8640 N.am    
  12 C12           -0.6570    -8.6479     0.6690 C.2     
  13 C13           -2.0109    -8.3335     0.6361 C.2     
  14 C14           -2.9749    -9.4426     0.8148 C.2     
  15 N15           -2.5058   -10.6908     0.9982 N.am    
  16 C16           -2.2505    -6.9733     0.4328 C.2     
  17 C17           -1.1382    -6.2281     0.3080 C.2     
  18 S18            0.2872    -7.2418     0.4460 S.3     
  19 C19           -1.1193    -4.7821     0.0890 C.2     
  20 O20           -2.1648    -4.1656     0.0070 O.2     
  21 O21            0.0580    -4.1318    -0.0222 O.3     
  22 C22           -3.4490   -11.7976     1.1759 C.3     
  23 C23           -3.7572   -11.9645     2.6416 C.ar    
  24 C24           -4.8159   -11.2755     3.2057 C.ar    
  25 C25           -5.1031   -11.4242     4.5472 C.ar    
  26 C26           -4.3238   -12.2714     5.3344 C.ar    
  27 C27           -3.2581   -12.9636     4.7599 C.ar    
  28 C28           -2.9838   -12.8103     3.4162 C.ar    
  29 O29           -5.5834   -12.1830     8.5991 O.3     
  30 N30           -5.5832   -11.8542     7.4344 N.2     
  31 C31           -4.6264   -12.4350     6.7747 C.2     
  32 N32           -3.9423   -13.2380     7.6758 N.am    
  33 C33           -4.5895   -13.0511     8.8513 C.2     
  34 S34           -4.2151   -13.7752    10.3567 S.2     
  35 O35           -4.1727    -9.2293     0.7958 O.2     
  36 O36           -0.8028   -12.0785     1.1845 O.2     
  37 C37            1.1484   -10.3007     0.9002 C.3     
  38 H38           -0.4104    -0.0355     1.8027 H       
  39 H39           -0.3635    -2.4866     1.9691 H       
  40 H40            0.4216    -2.7682    -2.2263 H       
  41 H41            0.3651    -0.3184    -2.4081 H       
  42 H42            0.3256     1.5143    -2.3976 H       
  43 H43            0.1405     3.0206    -1.6769 H       
  44 H44           -3.2449    -6.5551     0.3799 H       
  45 H45           -4.3693   -11.5813     0.6334 H       
  46 H46           -3.0075   -12.7166     0.7905 H       
  47 H47           -5.4187   -10.6197     2.5950 H       
  48 H48           -5.9295   -10.8853     4.9866 H       
  49 H49           -2.6509   -13.6208     5.3646 H       
  50 H50           -2.1613   -13.3490     2.9692 H       
  51 H51           -3.1748   -13.8054     7.5032 H       
  52 H52            1.2643   -11.3725     1.0614 H       
  53 H53            1.6115   -10.0237    -0.0469 H       
  54 H54            1.6300    -9.7568     1.7128 H       
@<TRIPOS>BOND
   1    1    2 1
   2    1    8 2
   3    1    9 am
   4    2    3 ar
   5    2    7 ar
   6    3    4 ar
   7    3   38 1
   8    4    5 ar
   9    4   39 1
  10    5    6 ar
  11    5   21 1
  12    6    7 ar
  13    6   40 1
  14    7   41 1
  15    9   42 1
  16    9   43 1
  17   10   11 am
  18   10   15 am
  19   10   36 2
  20   11   12 1
  21   11   37 1
  22   12   13 2
  23   12   18 1
  24   13   14 1
  25   13   16 1
  26   14   15 am
  27   14   35 2
  28   15   22 1
  29   16   17 2
  30   16   44 1
  31   17   18 1
  32   17   19 1
  33   19   20 2
  34   19   21 1
  35   22   23 1
  36   22   45 1
  37   22   46 1
  38   23   24 ar
  39   23   28 ar
  40   24   25 ar
  41   24   47 1
  42   25   26 ar
  43   25   48 1
  44   26   27 ar
  45   26   31 1
  46   27   28 ar
  47   27   49 1
  48   28   50 1
  49   29   30 1
  50   29   33 1
  51   30   31 2
  52   31   32 1
  53   32   33 am
  54   32   51 1
  55   33   34 2
  56   37   52 1
  57   37   53 1
  58   37   54 1

#	End of record

