#	Name: ASD01918008
#	Creating user name:	WinNT
#	Creation time:	15. 06. 2019 20:10

#	Modifying user name:	WinNT
#	Modification time:	15. 06. 2019 20:10

#	Program:	/corina/corina34_cracker 3.40 0067  02.08.2006

@<TRIPOS>MOLECULE
ASD01918008
  42   45    0    0    0
SMALL
NO_CHARGES


@<TRIPOS>ATOM
   1 N1             4.8259    -0.4050    -2.1389 N.ar    
   2 C2             5.2918     0.2907    -3.1569 C.ar    
   3 C3             5.1767     1.6736    -3.1850 C.ar    
   4 C4             4.5605     2.3226    -2.1217 C.ar    
   5 C5             4.0818     1.5531    -1.0668 C.ar    
   6 C6             4.2356     0.1747    -1.1126 C.ar    
   7 O7             3.4725     2.1431    -0.0051 O.3     
   8 C8             3.4500     3.5024     0.0440 C.2     
   9 N9             2.1932     5.5149    -0.0219 N.pl3   
  10 C10            2.2668     4.1545    -0.0657 C.2     
  11 C11            4.6494     4.2063     0.2131 C.2     
  12 C12            4.6211     5.5944     0.2631 C.2     
  13 C13            3.3266     6.2694     0.1359 C.2     
  14 C14            5.8608     6.3681     0.4401 C.2     
  15 N15            5.8142     7.7142     0.4864 N.am    
  16 C16            6.9701     8.4422     0.7591 C.ar    
  17 N17            8.1310     7.8144     0.8648 N.ar    
  18 C18            6.8951     9.8219     0.9124 C.ar    
  19 C19            8.0511    10.5329     1.1831 C.ar    
  20 C20            9.2469     9.8364     1.2917 C.ar    
  21 C21            9.2488     8.4658     1.1220 C.ar    
  22 O22            6.9272     5.7925     0.5446 O.2     
  23 C23            1.1424     6.3893    -0.1077 C.2     
  24 C24            1.6523     7.6355    -0.0098 C.2     
  25 N25            2.9773     7.5430     0.1435 N.2     
  26 O26            5.6606     2.3836    -4.2381 O.3     
  27 C27            6.2804     1.6419    -5.2906 C.3     
  28 H28            5.7693    -0.2216    -3.9791 H       
  29 H29            4.4563     3.3976    -2.1146 H       
  30 H30            3.8671    -0.4305    -0.2975 H       
  31 H31            1.3598     3.5819    -0.1914 H       
  32 H32            5.5857     3.6757     0.3039 H       
  33 H33            4.9758     8.1762     0.3297 H       
  34 H34            5.9476    10.3321     0.8210 H       
  35 H35            8.0236    11.6055     1.3068 H       
  36 H36           10.1669    10.3615     1.5020 H       
  37 H37           10.1775     7.9201     1.2015 H       
  38 H38            0.1017     6.1306    -0.2361 H       
  39 H39            1.0840     8.5533    -0.0412 H       
  40 H40            7.1323     1.0900    -4.8934 H       
  41 H41            5.5603     0.9425    -5.7151 H       
  42 H42            6.6215     2.3277    -6.0662 H       
@<TRIPOS>BOND
   1    1    2 ar
   2    1    6 ar
   3    2    3 ar
   4    2   28 1
   5    3    4 ar
   6    3   26 1
   7    4    5 ar
   8    4   29 1
   9    5    6 ar
  10    5    7 1
  11    6   30 1
  12    7    8 1
  13    8   11 1
  14    8   10 2
  15    9   10 1
  16    9   23 1
  17    9   13 1
  18   10   31 1
  19   11   12 2
  20   11   32 1
  21   12   13 1
  22   12   14 1
  23   13   25 2
  24   14   15 am
  25   14   22 2
  26   15   16 1
  27   15   33 1
  28   16   18 ar
  29   16   17 ar
  30   17   21 ar
  31   18   19 ar
  32   18   34 1
  33   19   20 ar
  34   19   35 1
  35   20   21 ar
  36   20   36 1
  37   21   37 1
  38   23   24 2
  39   23   38 1
  40   24   25 1
  41   24   39 1
  42   26   27 1
  43   27   40 1
  44   27   41 1
  45   27   42 1

#	End of record

