#	Name: ASD07930104
#	Creating user name:	WinNT
#	Creation time:	15. 06. 2019 21:11

#	Modifying user name:	WinNT
#	Modification time:	15. 06. 2019 21:11

#	Program:	/corina/corina34_cracker 3.40 0067  02.08.2006

@<TRIPOS>MOLECULE
ASD07930104
  33   33    0    0    0
SMALL
NO_CHARGES


@<TRIPOS>ATOM
   1 C1            -0.0187     1.5258     0.0104 C.3     
   2 C2             0.0021    -0.0041     0.0020 C.3     
   3 C3             0.8475    -0.5091     1.1729 C.3     
   4 N4             0.5820    -0.4790    -1.2614 N.3     
   5 O5             1.3220     2.0204     0.0003 O.3     
   6 C6             1.4818     3.3704     0.0060 C.ar    
   7 C7             2.7561     3.9187    -0.0032 C.ar    
   8 C8             2.9170     5.2906     0.0021 C.ar    
   9 C9             1.8071     6.1185     0.0172 C.ar    
  10 C10            0.5350     5.5727     0.0264 C.ar    
  11 C11            0.3710     4.2008     0.0153 C.ar    
  12 C12            4.7926     3.2973    -1.2742 C.3     
  13 C13            3.9642     3.0180    -0.0186 C.3     
  14 C14            4.8157     3.2857     1.2241 C.3     
  15 F15            5.2071     4.6335    -1.2718 F       
  16 F16            5.9141     2.4611    -1.2885 F       
  17 F17            4.0140     3.0526    -2.4105 F       
  18 F18            1.9659     7.4601     0.0233 F       
  19 H19           -0.5459     1.8868    -0.8726 H       
  20 H20           -0.5289     1.8773     0.9072 H       
  21 H21           -1.0158    -0.3818     0.0993 H       
  22 H22            1.8654    -0.1314     1.0757 H       
  23 H23            0.4173    -0.1567     2.1104 H       
  24 H24            0.8623    -1.5990     1.1669 H       
  25 H25            1.5018    -0.0902    -1.4058 H       
  26 H26            0.6068    -1.4872    -1.2914 H       
  27 H27            3.9089     5.7177    -0.0050 H       
  28 H28           -0.3298     6.2196     0.0381 H       
  29 H29           -0.6216     3.7752     0.0183 H       
  30 H30            3.6413     1.9770    -0.0204 H       
  31 H31            4.2255     3.0867     2.1187 H       
  32 H32            5.6895     2.6342     1.2130 H       
  33 H33            5.1386     4.3267     1.2260 H       
@<TRIPOS>BOND
   1    1    2 1
   2    1    5 1
   3    1   19 1
   4    1   20 1
   5    2    3 1
   6    2    4 1
   7    2   21 1
   8    3   22 1
   9    3   23 1
  10    3   24 1
  11    4   25 1
  12    4   26 1
  13    5    6 1
  14    6    7 ar
  15    6   11 ar
  16    7    8 ar
  17    7   13 1
  18    8    9 ar
  19    8   27 1
  20    9   10 ar
  21    9   18 1
  22   10   11 ar
  23   10   28 1
  24   11   29 1
  25   12   13 1
  26   12   15 1
  27   12   16 1
  28   12   17 1
  29   13   14 1
  30   13   30 1
  31   14   31 1
  32   14   32 1
  33   14   33 1

#	End of record

