#	Name: ASD03240099
#	Creating user name:	WinNT
#	Creation time:	15. 06. 2019 20:34

#	Modifying user name:	WinNT
#	Modification time:	15. 06. 2019 20:34

#	Program:	/corina/corina34_cracker 3.40 0067  02.08.2006

@<TRIPOS>MOLECULE
ASD03240099
  57   61    0    0    0
SMALL
NO_CHARGES


@<TRIPOS>ATOM
   1 C1            -0.0172     1.4161     0.0098 C.ar    
   2 C2             0.0021    -0.0041     0.0020 C.ar    
   3 C3             1.1944     2.1238     0.0021 C.ar    
   4 C4             2.3741     1.3943    -0.0132 C.ar    
   5 C5             2.3168    -0.0170    -0.0203 C.ar    
   6 N6             1.1632    -0.6586    -0.0127 N.ar    
   7 C7             3.5780    -0.7936    -0.0370 C.ar    
   8 C8             3.6832     2.0897    -0.0224 C.ar    
   9 C9             3.9287     3.1071    -0.9434 C.ar    
  10 C10            5.1491     3.7512    -0.9470 C.ar    
  11 C11            6.1280     3.3890    -0.0391 C.ar    
  12 C12            5.8903     2.3799     0.8768 C.ar    
  13 C13            4.6717     1.7327     0.8936 C.ar    
  14 C14            3.6631    -2.0058     0.6475 C.ar    
  15 C15            4.8407    -2.7246     0.6281 C.ar    
  16 C16            5.9358    -2.2450    -0.0680 C.ar    
  17 C17            5.8577    -1.0432    -0.7489 C.ar    
  18 C18            4.6836    -0.3183    -0.7421 C.ar    
  19 C19            7.2193    -3.0345    -0.0842 C.3     
  20 N20            7.2094    -3.9619    -1.2235 N.3     
  21 C21            9.6713    -6.5110    -2.5174 C.2     
  22 C22            8.4006    -5.7022    -2.4682 C.3     
  23 C23            8.4480    -4.7503    -1.2714 C.3     
  24 N24           -1.1674    -0.6568     0.0102 N.ar    
  25 C25           -2.3050     0.0125     0.0251 C.ar    
  26 N26           -2.3572     1.3437     0.0327 N.ar    
  27 C27           -1.2610     2.0734     0.0311 C.ar    
  28 S28           -3.8170    -0.8921     0.0348 S.3     
  29 C29           -5.0018     0.4762     0.0542 C.3     
  30 S30           11.1518    -6.0690    -3.3702 S.3     
  31 C31           11.8853    -7.5711    -2.8036 C.2     
  32 N32           10.9981    -8.1975    -2.0848 N.2     
  33 N33            9.8721    -7.6493    -1.9376 N.2     
  34 N34           13.1741    -8.0060    -3.0750 N.pl3   
  35 H35            1.2080     3.2037     0.0074 H       
  36 H36            3.1653     3.3904    -1.6529 H       
  37 H37            5.3405     4.5393    -1.6602 H       
  38 H38            7.0817     3.8959    -0.0456 H       
  39 H39            6.6584     2.1012     1.5830 H       
  40 H40            4.4871     0.9452     1.6093 H       
  41 H41            2.8090    -2.3809     1.1918 H       
  42 H42            4.9078    -3.6635     1.1577 H       
  43 H43            6.7160    -0.6737    -1.2902 H       
  44 H44            4.6236     0.6196    -1.2743 H       
  45 H45            8.0643    -2.3525    -0.1783 H       
  46 H46            7.3100    -3.5996     0.8434 H       
  47 H47            6.3993    -4.5627    -1.1936 H       
  48 H48            8.3014    -5.1252    -3.3877 H       
  49 H49            7.5471    -6.3724    -2.3659 H       
  50 H50            9.3015    -4.0801    -1.3737 H       
  51 H51            8.5472    -5.3272    -0.3519 H       
  52 H52           -1.3156     3.1520     0.0373 H       
  53 H53           -4.8424     1.0821     0.9461 H       
  54 H54           -4.8598     1.0922    -0.8338 H       
  55 H55           -6.0164     0.0781     0.0618 H       
  56 H56           13.7630    -7.4650    -3.6240 H       
  57 H57           13.4865    -8.8511    -2.7157 H       
@<TRIPOS>BOND
   1    1    2 ar
   2    1    3 ar
   3    1   27 ar
   4    2   24 ar
   5    2    6 ar
   6    3    4 ar
   7    3   35 1
   8    4    5 ar
   9    4    8 1
  10    5    6 ar
  11    5    7 1
  12    7   14 ar
  13    7   18 ar
  14    8    9 ar
  15    8   13 ar
  16    9   10 ar
  17    9   36 1
  18   10   11 ar
  19   10   37 1
  20   11   12 ar
  21   11   38 1
  22   12   13 ar
  23   12   39 1
  24   13   40 1
  25   14   15 ar
  26   14   41 1
  27   15   16 ar
  28   15   42 1
  29   16   17 ar
  30   16   19 1
  31   17   18 ar
  32   17   43 1
  33   18   44 1
  34   19   20 1
  35   19   45 1
  36   19   46 1
  37   20   23 1
  38   20   47 1
  39   21   22 1
  40   21   30 1
  41   21   33 2
  42   22   23 1
  43   22   48 1
  44   22   49 1
  45   23   50 1
  46   23   51 1
  47   24   25 ar
  48   25   26 ar
  49   25   28 1
  50   26   27 ar
  51   27   52 1
  52   28   29 1
  53   29   53 1
  54   29   54 1
  55   29   55 1
  56   30   31 1
  57   31   32 2
  58   31   34 1
  59   32   33 1
  60   34   56 1
  61   34   57 1

#	End of record

