#	Name: ASD01916599
#	Creating user name:	WinNT
#	Creation time:	15. 06. 2019 20:07

#	Modifying user name:	WinNT
#	Modification time:	15. 06. 2019 20:07

#	Program:	/corina/corina34_cracker 3.40 0067  02.08.2006

@<TRIPOS>MOLECULE
ASD01916599
  44   47    0    0    0
SMALL
NO_CHARGES


@<TRIPOS>ATOM
   1 C1            -0.0171     1.4096     0.0098 C.ar    
   2 C2             0.0021    -0.0041     0.0020 C.ar    
   3 C3            -1.1916    -0.7257     0.0075 C.ar    
   4 C4            -2.3849    -0.0646     0.0197 C.ar    
   5 C5            -2.4224     1.3379     0.0273 C.ar    
   6 C6            -1.2415     2.0759     0.0193 C.ar    
   7 N7             1.1587     2.0862     0.0022 N.2     
   8 C8             2.3039     1.4743    -0.0195 C.2     
   9 N9             2.4095     0.1109    -0.0246 N.am    
  10 C10            1.3121    -0.6724    -0.0133 C.2     
  11 C11           -3.6840     2.0153     0.0394 C.1     
  12 O12            1.4022    -1.8864    -0.0157 O.2     
  13 C13           -4.7183     2.5706     0.0493 C.1     
  14 C14           -5.9799     3.2480     0.0613 C.ar    
  15 N15           -6.0017     4.5745     0.0684 N.ar    
  16 C16           -7.1576     5.2328     0.0797 C.ar    
  17 C17           -8.3519     4.5054     0.0839 C.ar    
  18 C18           -8.2826     3.1195     0.0762 C.ar    
  19 N19           -7.1002     2.5316     0.0597 N.ar    
  20 C20            3.5847     2.2794    -0.0497 C.3     
  21 C21            4.1982     2.1871    -1.4445 C.3     
  22 C22            5.1105     0.9790    -1.5646 C.3     
  23 C23            4.3488    -0.3295    -1.4398 C.3     
  24 C24            3.7504    -0.4861    -0.0433 C.3     
  25 C25            5.8104     1.0184    -2.9245 C.3     
  26 C26           -7.1785     6.6646     0.0878 C.1     
  27 N27           -7.1952     7.8005     0.0942 N.1     
  28 H28           -1.1712    -1.8055     0.0017 H       
  29 H29           -3.3079    -0.6252     0.0232 H       
  30 H30           -1.2739     3.1554     0.0261 H       
  31 H31           -9.3063     5.0107     0.0934 H       
  32 H32           -9.1862     2.5280     0.0795 H       
  33 H33            3.3660     3.3213     0.1843 H       
  34 H34            4.2845     1.8788     0.6837 H       
  35 H35            3.3993     2.1062    -2.1816 H       
  36 H36            4.7746     3.0910    -1.6418 H       
  37 H37            5.8646     1.0257    -0.7790 H       
  38 H38            3.5461    -0.3477    -2.1769 H       
  39 H39            5.0290    -1.1591    -1.6325 H       
  40 H40            4.3849     0.0205     0.6839 H       
  41 H41            3.6814    -1.5448     0.2069 H       
  42 H42            6.3982     1.9329    -3.0043 H       
  43 H43            6.4679     0.1543    -3.0199 H       
  44 H44            5.0636     0.9961    -3.7182 H       
@<TRIPOS>BOND
   1    1    2 ar
   2    1    7 1
   3    1    6 ar
   4    2    3 ar
   5    2   10 1
   6    3    4 ar
   7    3   28 1
   8    4    5 ar
   9    4   29 1
  10    5    6 ar
  11    5   11 1
  12    6   30 1
  13    7    8 2
  14    8    9 1
  15    8   20 1
  16    9   10 am
  17    9   24 1
  18   10   12 2
  19   11   13 3
  20   13   14 1
  21   14   15 ar
  22   14   19 ar
  23   15   16 ar
  24   16   26 1
  25   16   17 ar
  26   17   18 ar
  27   17   31 1
  28   18   19 ar
  29   18   32 1
  30   20   21 1
  31   20   33 1
  32   20   34 1
  33   21   22 1
  34   21   35 1
  35   21   36 1
  36   22   23 1
  37   22   25 1
  38   22   37 1
  39   23   24 1
  40   23   38 1
  41   23   39 1
  42   24   40 1
  43   24   41 1
  44   25   42 1
  45   25   43 1
  46   25   44 1
  47   26   27 3

#	End of record

