#	Name: ASD01816445
#	Creating user name:	WinNT
#	Creation time:	15. 06. 2019 19:35

#	Modifying user name:	WinNT
#	Modification time:	15. 06. 2019 19:35

#	Program:	/corina/corina34_cracker 3.40 0067  02.08.2006

@<TRIPOS>MOLECULE
ASD01816445
  54   59    0    0    0
SMALL
NO_CHARGES


@<TRIPOS>ATOM
   1 C1            -0.0167     1.3813     0.0096 C.ar    
   2 C2             0.0021    -0.0041     0.0020 C.ar    
   3 C3             1.1984    -0.6909    -0.0131 C.ar    
   4 C4             2.4015     0.0059    -0.0204 C.ar    
   5 C5             2.3790     1.4106    -0.0127 C.ar    
   6 C6             1.1663     2.0916     0.0022 C.ar    
   7 N7             3.6053    -0.6772    -0.0347 N.pl3   
   8 C8             4.7970    -0.0586    -0.0419 C.2     
   9 C9             4.9000     1.3102    -0.0355 C.2     
  10 C10            3.6670     2.1301    -0.0207 C.2     
  11 C11            5.9971     2.2729    -0.0400 C.2     
  12 N12            5.4246     3.4960    -0.0290 N.am    
  13 N13            4.0323     3.3799    -0.0176 N.2     
  14 C14            6.1270     4.7089    -0.0280 C.ar    
  15 O15            7.1915     2.0228    -0.0516 O.2     
  16 C16            3.5779    -2.1420    -0.0418 C.3     
  17 C17            3.5557    -2.6371    -1.4650 C.ar    
  18 C18            4.7437    -2.8861    -2.1275 C.ar    
  19 C19            4.7266    -3.3395    -3.4320 C.ar    
  20 C20            3.5150    -3.5456    -4.0780 C.ar    
  21 C21            2.3240    -3.2951    -3.4100 C.ar    
  22 C22            2.3474    -2.8468    -2.1038 C.ar    
  23 N23            3.4944    -4.0053    -5.4021 N.pl3   
  24 C24            2.3897    -4.2463    -6.1438 C.2     
  25 C25            2.7965    -4.6753    -7.3610 C.2     
  26 C26            4.1955    -4.6976    -7.3645 C.2     
  27 N27            4.6147    -4.2907    -6.1933 N.2     
  28 C28            7.0600     4.9729    -1.0215 C.ar    
  29 C29            7.7512     6.1686    -1.0189 C.ar    
  30 C30            7.5153     7.1049    -0.0260 C.ar    
  31 C31            6.5860     6.8453     0.9669 C.ar    
  32 C32            5.8864     5.6522     0.9650 C.ar    
  33 F33            4.9751     5.4009     1.9303 F       
  34 F34            8.1935     8.2734    -0.0261 F       
  35 C35            6.3322     7.8656     2.0465 C.3     
  36 H36           -0.9602     1.9068     0.0170 H       
  37 H37           -0.9289    -0.5515     0.0083 H       
  38 H38            1.2004    -1.7709    -0.0189 H       
  39 H39            1.1506     3.1715     0.0081 H       
  40 H40            5.6983    -0.6536    -0.0526 H       
  41 H41            4.4655    -2.5244     0.4622 H       
  42 H42            2.6860    -2.4912     0.4783 H       
  43 H43            5.6858    -2.7256    -1.6244 H       
  44 H44            5.6547    -3.5332    -3.9492 H       
  45 H45            1.3800    -3.4542    -3.9100 H       
  46 H46            1.4212    -2.6517    -1.5837 H       
  47 H47            1.3665    -4.1197    -5.8223 H       
  48 H48            2.1546    -4.9517    -8.1844 H       
  49 H49            4.8218    -4.9951    -8.1926 H       
  50 H50            7.2454     4.2433    -1.7960 H       
  51 H51            8.4770     6.3736    -1.7920 H       
  52 H52            5.5355     8.5388     1.7301 H       
  53 H53            6.0355     7.3575     2.9641 H       
  54 H54            7.2419     8.4384     2.2262 H       
@<TRIPOS>BOND
   1    1    2 ar
   2    1    6 ar
   3    1   36 1
   4    2    3 ar
   5    2   37 1
   6    3    4 ar
   7    3   38 1
   8    4    5 ar
   9    4    7 1
  10    5    6 ar
  11    5   10 1
  12    6   39 1
  13    7    8 1
  14    7   16 1
  15    8    9 2
  16    8   40 1
  17    9   10 1
  18    9   11 1
  19   10   13 2
  20   11   12 am
  21   11   15 2
  22   12   13 1
  23   12   14 1
  24   14   32 ar
  25   14   28 ar
  26   16   17 1
  27   16   41 1
  28   16   42 1
  29   17   18 ar
  30   17   22 ar
  31   18   19 ar
  32   18   43 1
  33   19   20 ar
  34   19   44 1
  35   20   21 ar
  36   20   23 1
  37   21   22 ar
  38   21   45 1
  39   22   46 1
  40   23   24 1
  41   23   27 1
  42   24   25 2
  43   24   47 1
  44   25   26 1
  45   25   48 1
  46   26   27 2
  47   26   49 1
  48   28   29 ar
  49   28   50 1
  50   29   30 ar
  51   29   51 1
  52   30   31 ar
  53   30   34 1
  54   31   32 ar
  55   31   35 1
  56   32   33 1
  57   35   52 1
  58   35   53 1
  59   35   54 1

#	End of record

