#	Name: ASD01940015
#	Creating user name:	WinNT
#	Creation time:	15. 06. 2019 20:11

#	Modifying user name:	WinNT
#	Modification time:	15. 06. 2019 20:11

#	Program:	/corina/corina34_cracker 3.40 0067  02.08.2006

@<TRIPOS>MOLECULE
ASD01940015
  50   52    0    0    0
SMALL
NO_CHARGES


@<TRIPOS>ATOM
   1 C1             0.2720     1.3674     0.1876 C.ar    
   2 C2             0.2623     0.1557    -0.4912 C.ar    
   3 C3            -0.8671    -0.6383    -0.4696 C.ar    
   4 C4            -1.9923    -0.2258     0.2297 C.ar    
   5 C5            -1.9835     0.9847     0.9076 C.ar    
   6 C6            -0.8528     1.7770     0.8921 C.ar    
   7 N7             1.4165     2.1725     0.1666 N.pl3   
   8 C8             1.2928     3.5502     0.1563 C.2     
   9 C9             2.3113     4.4868     0.2621 C.2     
  10 C10            1.8625     5.8078     0.2177 C.2     
  11 N11            0.5834     5.9885     0.0866 N.2     
  12 S12           -0.1550     4.4657     0.0022 S.3     
  13 O13            2.7232     6.8547     0.3078 O.3     
  14 C14            3.7298     4.1220     0.4077 C.2     
  15 N15            4.2721     3.9498     1.6642 N.pl3   
  16 N16            4.4754     3.9611    -0.6536 N.2     
  17 C17            5.6840     3.5867     1.8092 C.3     
  18 C18            6.5425     4.8526     1.7724 C.3     
  19 C19            5.8914     2.8684     3.1441 C.3     
  20 O20            5.6211     3.7716     4.2180 O.3     
  21 O21           -3.1042    -1.0080     0.2501 O.3     
  22 C22           -4.2184    -0.5498    -0.3793 C.ar    
  23 C23           -5.4139    -1.2501    -0.2759 C.ar    
  24 C24           -6.5459    -0.7805    -0.9174 C.ar    
  25 C25           -6.4872     0.3839    -1.6606 C.ar    
  26 C26           -5.2982     1.0819    -1.7644 C.ar    
  27 C27           -4.1656     0.6208    -1.1212 C.ar    
  28 F28           -5.4707    -2.3883     0.4497 F       
  29 C29           -7.8436    -1.5386    -0.8065 C.3     
  30 F30           -8.8360    -0.8734    -1.5344 F       
  31 F31           -7.6750    -2.8292    -1.3196 F       
  32 F32           -8.2245    -1.6171     0.5373 F       
  33 H33            1.1378    -0.1652    -1.0361 H       
  34 H34           -0.8748    -1.5806    -0.9973 H       
  35 H35           -2.8600     1.3055     1.4511 H       
  36 H36           -0.8460     2.7191     1.4201 H       
  37 H37            2.2964     1.7645     0.1591 H       
  38 H38            3.0630     7.1591    -0.5449 H       
  39 H39            3.7187     4.0692     2.4518 H       
  40 H40            5.4102     3.7207    -0.5576 H       
  41 H41            5.9751     2.9264     0.9922 H       
  42 H42            7.5930     4.5824     1.8802 H       
  43 H43            6.3948     5.3643     0.8214 H       
  44 H44            6.2515     5.5129     2.5893 H       
  45 H45            5.2147     2.0162     3.2070 H       
  46 H46            6.9219     2.5200     3.2129 H       
  47 H47            5.7328     3.3829     5.0963 H       
  48 H48           -7.3718     0.7487    -2.1614 H       
  49 H49           -5.2556     1.9909    -2.3460 H       
  50 H50           -3.2376     1.1671    -1.2031 H       
@<TRIPOS>BOND
   1    1    2 ar
   2    1    7 1
   3    1    6 ar
   4    2    3 ar
   5    2   33 1
   6    3    4 ar
   7    3   34 1
   8    4    5 ar
   9    4   21 1
  10    5    6 ar
  11    5   35 1
  12    6   36 1
  13    7    8 1
  14    7   37 1
  15    8    9 2
  16    8   12 1
  17    9   10 1
  18    9   14 1
  19   10   11 2
  20   10   13 1
  21   11   12 1
  22   13   38 1
  23   14   15 1
  24   14   16 2
  25   15   17 1
  26   15   39 1
  27   16   40 1
  28   17   18 1
  29   17   19 1
  30   17   41 1
  31   18   42 1
  32   18   43 1
  33   18   44 1
  34   19   20 1
  35   19   45 1
  36   19   46 1
  37   20   47 1
  38   21   22 1
  39   22   23 ar
  40   22   27 ar
  41   23   24 ar
  42   23   28 1
  43   24   25 ar
  44   24   29 1
  45   25   26 ar
  46   25   48 1
  47   26   27 ar
  48   26   49 1
  49   27   50 1
  50   29   30 1
  51   29   31 1
  52   29   32 1

#	End of record

