#	Name: ASD02030174
#	Creating user name:	WinNT
#	Creation time:	15. 06. 2019 20:14

#	Modifying user name:	WinNT
#	Modification time:	15. 06. 2019 20:14

#	Program:	/corina/corina34_cracker 3.40 0067  02.08.2006

@<TRIPOS>MOLECULE
ASD02030174
  55   58    0    0    0
SMALL
NO_CHARGES


@<TRIPOS>ATOM
   1 C1             0.8522     0.8224    -0.0162 C.2     
   2 O2             1.0161    -0.3820    -0.0343 O.2     
   3 N3             4.0181     2.4193     0.1087 N.pl3   
   4 N4             3.2780     1.3650     0.1417 N.2     
   5 C5             2.0211     1.7273     0.0011 C.2     
   6 N6             1.9869     3.0667    -0.1242 N.2     
   7 C7             3.2217     3.4952    -0.0578 C.2     
   8 C8             5.4139     2.4444     0.2311 C.ar    
   9 C9             6.1181     1.2606     0.4048 C.ar    
  10 C10            7.4958     1.2889     0.5248 C.ar    
  11 C11            8.1713     2.4972     0.4720 C.ar    
  12 C12            7.4709     3.6763     0.2995 C.ar    
  13 C13            6.0954     3.6527     0.1730 C.ar    
  14 F14            8.1827     0.1380     0.6940 F       
  15 N15           -0.3952     1.3328    -0.0175 N.am    
  16 C16           -1.5621     0.4557    -0.1882 C.3     
  17 C17           -2.5148     0.6719     0.9941 C.3     
  18 N18           -2.7325     2.1153     1.1640 N.am    
  19 C19           -1.5657     2.9923     1.3347 C.3     
  20 C20           -0.6132     2.7755     0.1580 C.3     
  21 C21           -2.2783     0.8027    -1.4949 C.3     
  22 C22           -1.1065    -1.0045    -0.2204 C.3     
  23 C23           -3.9799     2.6257     1.1627 C.2     
  24 O24           -4.9420     1.8810     1.1372 O.2     
  25 O25           -3.2112     5.0128     1.0769 O.3     
  26 C26           -4.1777     4.0786     1.1922 C.2     
  27 C27           -5.3725     4.7228     1.3407 C.2     
  28 C28           -5.0955     6.0985     1.3113 C.2     
  29 C29           -3.7608     6.2321     1.1483 C.2     
  30 C30           -3.0135     7.5379     1.0615 C.3     
  31 C31           -6.0983     7.2164     1.4374 C.3     
  32 H32            3.5445     4.5236    -0.1241 H       
  33 H33            5.5909     0.3190     0.4466 H       
  34 H34            9.2470     2.5180     0.5662 H       
  35 H35            8.0001     4.6169     0.2591 H       
  36 H36            5.5499     4.5743     0.0337 H       
  37 H37           -3.4661     0.1797     0.7920 H       
  38 H38           -2.0721     0.2595     1.9007 H       
  39 H39           -1.8902     4.0327     1.3576 H       
  40 H40           -1.0554     2.7452     2.2657 H       
  41 H41            0.3378     3.2668     0.3638 H       
  42 H42           -1.0544     3.1917    -0.7477 H       
  43 H43           -1.5946     0.6629    -2.3323 H       
  44 H44           -3.1432     0.1510    -1.6193 H       
  45 H45           -2.6075     1.8414    -1.4642 H       
  46 H46           -0.5453    -1.2301     0.6864 H       
  47 H47           -1.9785    -1.6559    -0.2795 H       
  48 H48           -0.4713    -1.1679    -1.0909 H       
  49 H49           -6.3426     4.2629     1.4577 H       
  50 H50           -1.9497     7.3398     0.9305 H       
  51 H51           -3.3835     8.1125     0.2123 H       
  52 H52           -3.1670     8.1060     1.9791 H       
  53 H53           -6.2151     7.4829     2.4878 H       
  54 H54           -5.7470     8.0843     0.8793 H       
  55 H55           -7.0580     6.8906     1.0363 H       
@<TRIPOS>BOND
   1    1    2 2
   2    1    5 1
   3    1   15 am
   4    3    4 1
   5    3    7 1
   6    3    8 1
   7    4    5 2
   8    5    6 1
   9    6    7 2
  10    7   32 1
  11    8    9 ar
  12    8   13 ar
  13    9   10 ar
  14    9   33 1
  15   10   11 ar
  16   10   14 1
  17   11   12 ar
  18   11   34 1
  19   12   13 ar
  20   12   35 1
  21   13   36 1
  22   15   16 1
  23   15   20 1
  24   16   17 1
  25   16   21 1
  26   16   22 1
  27   17   18 1
  28   17   37 1
  29   17   38 1
  30   18   19 1
  31   18   23 am
  32   19   20 1
  33   19   39 1
  34   19   40 1
  35   20   41 1
  36   20   42 1
  37   21   43 1
  38   21   44 1
  39   21   45 1
  40   22   46 1
  41   22   47 1
  42   22   48 1
  43   23   24 2
  44   23   26 1
  45   25   26 1
  46   25   29 1
  47   26   27 2
  48   27   28 1
  49   27   49 1
  50   28   29 2
  51   28   31 1
  52   29   30 1
  53   30   50 1
  54   30   51 1
  55   30   52 1
  56   31   53 1
  57   31   54 1
  58   31   55 1

#	End of record

