#	Name: ASD00069403
#	Creating user name:	WinNT
#	Creation time:	15. 06. 2019 18:29

#	Modifying user name:	WinNT
#	Modification time:	15. 06. 2019 18:29

#	Program:	/corina/corina34_cracker 3.40 0067  02.08.2006

@<TRIPOS>MOLECULE
ASD00069403
  34   35    0    0    0
SMALL
NO_CHARGES


@<TRIPOS>ATOM
   1 C1            -0.0168     1.3912     0.0097 C.ar    
   2 C2             0.0021    -0.0041     0.0020 C.ar    
   3 N3             1.1731    -0.6338    -0.0125 N.ar    
   4 C4             2.3073     0.0500    -0.0197 C.ar    
   5 N5             2.3207     1.3748    -0.0127 N.ar    
   6 C6             1.1900     2.0673     0.0018 C.ar    
   7 Cl7            1.2237     3.8029     0.0102 Cl      
   8 N8            -1.1823    -0.7230     0.0099 N.3     
   9 C9            -0.9208    -2.1685    -0.0004 C.3     
  10 C10           -2.0445    -0.3294    -1.1124 C.3     
  11 C11           -3.4098    -1.0097    -0.9663 C.3     
  12 N12           -3.1972    -2.4581    -0.8236 N.am    
  13 C13           -2.2400    -2.9242     0.1912 C.3     
  14 C14           -3.8621    -3.3348    -1.6018 C.2     
  15 O15           -4.6481    -2.9328    -2.4334 O.2     
  16 C16           -3.6289    -4.8147    -1.4386 C.3     
  17 N17            3.5088    -0.6366    -0.0344 N.pl3   
  18 C18            4.7742     0.1015    -0.0425 C.3     
  19 H19           -0.9523     1.9309     0.0171 H       
  20 H20           -0.4752    -2.4506    -0.9543 H       
  21 H21           -0.2365    -2.4201     0.8098 H       
  22 H22           -2.1751     0.7528    -1.1086 H       
  23 H23           -1.5833    -0.6372    -2.0508 H       
  24 H24           -3.9177    -0.6253    -0.0819 H       
  25 H25           -4.0132    -0.8138    -1.8527 H       
  26 H26           -2.0701    -3.9940     0.0701 H       
  27 H27           -2.6355    -2.7238     1.1869 H       
  28 H28           -3.8892    -5.1138    -0.4233 H       
  29 H29           -4.2500    -5.3609    -2.1487 H       
  30 H30           -2.5790    -5.0399    -1.6259 H       
  31 H31            3.5130    -1.6066    -0.0393 H       
  32 H32            4.8375     0.7239     0.8501 H       
  33 H33            5.6058    -0.6031    -0.0538 H       
  34 H34            4.8209     0.7329    -0.9298 H       
@<TRIPOS>BOND
   1    1    2 ar
   2    1    6 ar
   3    1   19 1
   4    2    3 ar
   5    2    8 1
   6    3    4 ar
   7    4    5 ar
   8    4   17 1
   9    5    6 ar
  10    6    7 1
  11    8    9 1
  12    8   10 1
  13    9   13 1
  14    9   20 1
  15    9   21 1
  16   10   11 1
  17   10   22 1
  18   10   23 1
  19   11   12 1
  20   11   24 1
  21   11   25 1
  22   12   13 1
  23   12   14 am
  24   13   26 1
  25   13   27 1
  26   14   15 2
  27   14   16 1
  28   16   28 1
  29   16   29 1
  30   16   30 1
  31   17   18 1
  32   17   31 1
  33   18   32 1
  34   18   33 1
  35   18   34 1

#	End of record

