#	Name: ASD01120365
#	Creating user name:	WinNT
#	Creation time:	15. 06. 2019 18:59

#	Modifying user name:	WinNT
#	Modification time:	15. 06. 2019 18:59

#	Program:	/corina/corina34_cracker 3.40 0067  02.08.2006

@<TRIPOS>MOLECULE
ASD01120365
  42   44    0    0    0
SMALL
NO_CHARGES


@<TRIPOS>ATOM
   1 C1            -0.0317     1.3613    -0.5236 C.ar    
   2 C2            -0.0091    -0.0220    -0.4422 C.ar    
   3 C3             1.1829    -0.7024    -0.3162 C.ar    
   4 C4             2.3863    -0.0044    -0.2688 C.ar    
   5 C5             2.3787     1.4012    -0.3503 C.ar    
   6 C6             1.1511     2.0850    -0.4792 C.ar    
   7 N7             3.6976    -0.4018    -0.1504 N.pl3   
   8 C8             4.5039     0.7204    -0.1563 C.2     
   9 C9             3.7229     1.8282    -0.2771 C.2     
  10 C10            4.2059     3.2549    -0.3249 C.3     
  11 C11            4.3283     3.7033    -1.7825 C.3     
  12 C12            4.8112     5.1300    -1.8303 C.2     
  13 O13            4.9933     5.7377    -3.0133 O.3     
  14 O14            5.0346     5.7269    -0.8039 O.2     
  15 C15            5.9684     0.7178    -0.0500 C.2     
  16 O16            6.5809     1.7680    -0.0654 O.2     
  17 O17            6.6341    -0.4493     0.0648 O.3     
  18 C18            1.1255     3.5635    -0.5667 C.ar    
  19 C19            0.6035     4.1889    -1.6988 C.ar    
  20 C20            0.5820     5.5665    -1.7743 C.ar    
  21 C21            1.0768     6.3271    -0.7300 C.ar    
  22 C22            1.5958     5.7125     0.3955 C.ar    
  23 C23            1.6180     4.3358     0.4850 C.ar    
  24 N24            1.0512     7.8045    -0.8175 N.pl3   
  25 O25            0.5952     8.3482    -1.8075 O.2     
  26 O26            1.4862     8.4766     0.1005 O.2     
  27 N27            1.1834    -2.1802    -0.2305 N.pl3   
  28 O28            0.1316    -2.7929    -0.2714 O.2     
  29 O29            2.2357    -2.7834    -0.1191 O.2     
  30 H30           -0.9744     1.8781    -0.6266 H       
  31 H31           -0.9369    -0.5737    -0.4776 H       
  32 H32            4.0056    -1.3185    -0.0748 H       
  33 H33            3.4943     3.8969     0.1943 H       
  34 H34            5.1796     3.3253     0.1599 H       
  35 H35            5.0399     3.0612    -2.3017 H       
  36 H36            3.3546     3.6329    -2.2673 H       
  37 H37            5.3042     6.6531    -2.9934 H       
  38 H38            7.5976    -0.4005     0.1319 H       
  39 H39            0.2173     3.5961    -2.5148 H       
  40 H40            0.1784     6.0519    -2.6506 H       
  41 H41            1.9810     6.3116     1.2074 H       
  42 H42            2.0234     3.8571     1.3641 H       
@<TRIPOS>BOND
   1    1    2 ar
   2    1    6 ar
   3    1   30 1
   4    2    3 ar
   5    2   31 1
   6    3   27 1
   7    3    4 ar
   8    4    5 ar
   9    4    7 1
  10    5    6 ar
  11    5    9 1
  12    6   18 1
  13    7    8 1
  14    7   32 1
  15    8    9 2
  16    8   15 1
  17    9   10 1
  18   10   11 1
  19   10   33 1
  20   10   34 1
  21   11   12 1
  22   11   35 1
  23   11   36 1
  24   12   13 1
  25   12   14 2
  26   13   37 1
  27   15   16 2
  28   15   17 1
  29   17   38 1
  30   18   19 ar
  31   18   23 ar
  32   19   20 ar
  33   19   39 1
  34   20   21 ar
  35   20   40 1
  36   21   22 ar
  37   21   24 1
  38   22   23 ar
  39   22   41 1
  40   23   42 1
  41   24   25 2
  42   24   26 2
  43   27   28 2
  44   27   29 2

#	End of record

