#	Name: ASD04591015
#	Creating user name:	WinNT
#	Creation time:	15. 06. 2019 20:51

#	Modifying user name:	WinNT
#	Modification time:	15. 06. 2019 20:51

#	Program:	/corina/corina34_cracker 3.40 0067  02.08.2006

@<TRIPOS>MOLECULE
ASD04591015
  63   68    0    0    0
SMALL
NO_CHARGES


@<TRIPOS>ATOM
   1 N1            -0.0171     1.3232    -0.0119 N.ar    
   2 C2             0.0017    -0.0035    -0.0051 C.ar    
   3 N3             1.1298    -0.6949    -0.0118 N.ar    
   4 C4             2.3050    -0.0728    -0.0262 C.ar    
   5 C5             2.3189     1.3366    -0.0341 C.ar    
   6 C6             1.1072     2.0202    -0.0262 C.ar    
   7 N7             3.6031    -0.5195    -0.0358 N.pl3   
   8 C8             4.4823     0.5495    -0.0499 C.ar    
   9 C9             3.7312     1.7385    -0.0495 C.ar    
  10 C10            5.8680     0.6418    -0.0633 C.ar    
  11 N11            6.4613     1.8181    -0.0753 N.ar    
  12 C12            5.7850     2.9533    -0.0753 C.ar    
  13 C13            4.4064     2.9585    -0.0621 C.ar    
  14 N14           -1.2019    -0.6887     0.0098 N.pl3   
  15 C15           -2.4019     0.0120     0.1303 C.ar    
  16 N16           -2.3783     1.3196     0.3309 N.ar    
  17 C17           -3.4885     2.0229     0.4509 C.ar    
  18 C18           -4.7291     1.4087     0.3703 C.ar    
  19 C19           -4.7935     0.0321     0.1596 C.ar    
  20 C20           -3.6094    -0.6709     0.0326 C.ar    
  21 N21           -5.9023     2.1615     0.4995 N.3     
  22 C22           -5.5953     3.5824     0.7148 C.3     
  23 C23           -6.9000     4.3806     0.7711 C.3     
  24 N24           -7.7449     3.8574     1.8537 N.3     
  25 C25           -8.0519     2.4365     1.6384 C.3     
  26 C26           -6.7473     1.6383     1.5820 C.3     
  27 C27            4.0018    -1.9292    -0.0312 C.3     
  28 C28            3.4783    -2.5632     1.1697 C.3     
  29 C29            3.9079    -4.0397     1.2900 C.3     
  30 C30            3.0171    -4.8702     0.4063 C.3     
  31 C31            3.6251    -5.1049    -0.9897 C.3     
  32 C32            4.2932    -3.8437    -1.5700 C.3     
  33 C33            3.4860    -2.5983    -1.3217 C.3     
  34 H34            1.0848     3.1000    -0.0323 H       
  35 H35            6.4645    -0.2585    -0.0635 H       
  36 H36            6.3203     3.8912    -0.0851 H       
  37 H37            3.8596     3.8899    -0.0625 H       
  38 H38           -1.2103    -1.6559    -0.0635 H       
  39 H39           -3.4301     3.0889     0.6140 H       
  40 H40           -5.7459    -0.4729     0.0926 H       
  41 H41           -3.6221    -1.7382    -0.1317 H       
  42 H42           -5.0564     3.6996     1.6549 H       
  43 H43           -4.9794     3.9498    -0.1061 H       
  44 H44           -6.6760     5.4305     0.9597 H       
  45 H45           -7.4258     4.2855    -0.1789 H       
  46 H46           -7.3106     4.0013     2.7530 H       
  47 H47           -8.6679     2.0691     2.4592 H       
  48 H48           -8.5909     2.3193     0.6982 H       
  49 H49           -6.9712     0.5883     1.3935 H       
  50 H50           -6.2214     1.7334     2.5321 H       
  51 H51            5.0901    -1.9878    -0.0156 H       
  52 H52            3.8389    -2.0184     2.0422 H       
  53 H53            2.3896    -2.5129     1.1495 H       
  54 H54            4.9442    -4.1468     0.9696 H       
  55 H55            3.8058    -4.3675     2.3245 H       
  56 H56            2.8475    -5.8353     0.8838 H       
  57 H57            2.0596    -4.3618     0.2931 H       
  58 H58            4.3705    -5.8971    -0.9199 H       
  59 H59            2.8348    -5.4275    -1.6676 H       
  60 H60            5.2760    -3.7237    -1.1141 H       
  61 H61            4.4188    -3.9740    -2.6449 H       
  62 H62            2.4348    -2.8610    -1.2030 H       
  63 H63            3.6025    -1.9130    -2.1613 H       
@<TRIPOS>BOND
   1    1    2 ar
   2    1    6 ar
   3    2    3 ar
   4    2   14 1
   5    3    4 ar
   6    4    5 ar
   7    4    7 1
   8    5    6 ar
   9    5    9 1
  10    6   34 1
  11    7    8 1
  12    7   27 1
  13    8    9 ar
  14    8   10 ar
  15    9   13 ar
  16   10   11 ar
  17   10   35 1
  18   11   12 ar
  19   12   13 ar
  20   12   36 1
  21   13   37 1
  22   14   15 1
  23   14   38 1
  24   15   16 ar
  25   15   20 ar
  26   16   17 ar
  27   17   18 ar
  28   17   39 1
  29   18   19 ar
  30   18   21 1
  31   19   20 ar
  32   19   40 1
  33   20   41 1
  34   21   22 1
  35   21   26 1
  36   22   23 1
  37   22   42 1
  38   22   43 1
  39   23   24 1
  40   23   44 1
  41   23   45 1
  42   24   25 1
  43   24   46 1
  44   25   26 1
  45   25   47 1
  46   25   48 1
  47   26   49 1
  48   26   50 1
  49   27   28 1
  50   27   33 1
  51   27   51 1
  52   28   29 1
  53   28   52 1
  54   28   53 1
  55   29   30 1
  56   29   54 1
  57   29   55 1
  58   30   31 1
  59   30   56 1
  60   30   57 1
  61   31   32 1
  62   31   58 1
  63   31   59 1
  64   32   33 1
  65   32   60 1
  66   32   61 1
  67   33   62 1
  68   33   63 1

#	End of record

