#	Name: ASD01813598
#	Creating user name:	WinNT
#	Creation time:	15. 06. 2019 19:30

#	Modifying user name:	WinNT
#	Modification time:	15. 06. 2019 19:30

#	Program:	/corina/corina34_cracker 3.40 0067  02.08.2006

@<TRIPOS>MOLECULE
ASD01813598
  46   49    0    0    0
SMALL
NO_CHARGES


@<TRIPOS>ATOM
   1 C1            -0.0235     1.3626    -0.0261 C.ar    
   2 C2            -0.0022    -0.0236    -0.0399 C.ar    
   3 C3             1.1946    -0.7108    -0.0391 C.ar    
   4 C4             2.3998    -0.0111    -0.0247 C.ar    
   5 C5             2.3767     1.3940    -0.0112 C.ar    
   6 C6             1.1577     2.0768    -0.0118 C.ar    
   7 N7             3.6020    -0.6867    -0.0227 N.pl3   
   8 C8             4.7856    -0.0609    -0.0081 C.2     
   9 C9             4.8896     1.3154     0.0064 C.2     
  10 C10            3.6579     2.1218     0.0039 C.2     
  11 O11            3.6963     3.3398     0.0158 O.2     
  12 C12            6.2077     1.9649     0.0231 C.2     
  13 O13            6.2962     3.3100     0.0372 O.3     
  14 O14            7.2183     1.2893     0.0242 O.2     
  15 C15            3.5834    -2.1515    -0.0365 C.3     
  16 C16            3.4402    -2.6387    -1.4554 C.ar    
  17 N17            2.2398    -2.7409    -1.9896 N.ar    
  18 C18            2.0667    -3.1646    -3.2350 C.ar    
  19 C19            3.1614    -3.5178    -4.0213 C.ar    
  20 C20            4.4335    -3.4202    -3.4854 C.ar    
  21 C21            4.5700    -2.9669    -2.1807 C.ar    
  22 F22            1.1979    -2.0617    -0.0517 F       
  23 F23            1.1352     3.4276     0.0007 F       
  24 C24            0.6965    -3.2636    -3.7946 C.2     
  25 C25            0.2621    -2.7453    -5.0308 C.2     
  26 N26           -1.0045    -3.0338    -5.1687 N.2     
  27 N27           -1.4259    -3.7415    -4.0365 N.pl3   
  28 C28           -0.3721    -3.8788    -3.2085 C.2     
  29 C29            1.1105    -1.9895    -6.0208 C.3     
  30 C30           -0.3749    -4.5765    -1.8728 C.3     
  31 H31           -0.9683     1.8859    -0.0311 H       
  32 H32           -0.9326    -0.5719    -0.0511 H       
  33 H33            5.6891    -0.6526    -0.0074 H       
  34 H34            7.1848     3.6914     0.0479 H       
  35 H35            4.5140    -2.5308     0.3857 H       
  36 H36            2.7424    -2.5098     0.5573 H       
  37 H37            3.0191    -3.8633    -5.0346 H       
  38 H38            5.3010    -3.6872    -4.0707 H       
  39 H39            5.5493    -2.8795    -1.7337 H       
  40 H40           -2.3215    -4.0784    -3.8774 H       
  41 H41            1.6367    -2.6962    -6.6625 H       
  42 H42            0.4734    -1.3493    -6.6311 H       
  43 H43            1.8349    -1.3762    -5.4849 H       
  44 H44           -0.1286    -5.6291    -2.0122 H       
  45 H45            0.3649    -4.1137    -1.2196 H       
  46 H46           -1.3629    -4.4914    -1.4204 H       
@<TRIPOS>BOND
   1    1    2 ar
   2    1    6 ar
   3    1   31 1
   4    2    3 ar
   5    2   32 1
   6    3    4 ar
   7    3   22 1
   8    4    5 ar
   9    4    7 1
  10    5    6 ar
  11    5   10 1
  12    6   23 1
  13    7    8 1
  14    7   15 1
  15    8    9 2
  16    8   33 1
  17    9   10 1
  18    9   12 1
  19   10   11 2
  20   12   13 1
  21   12   14 2
  22   13   34 1
  23   15   16 1
  24   15   35 1
  25   15   36 1
  26   16   17 ar
  27   16   21 ar
  28   17   18 ar
  29   18   19 ar
  30   18   24 1
  31   19   20 ar
  32   19   37 1
  33   20   21 ar
  34   20   38 1
  35   21   39 1
  36   24   25 1
  37   24   28 2
  38   25   26 2
  39   25   29 1
  40   26   27 1
  41   27   28 1
  42   27   40 1
  43   28   30 1
  44   29   41 1
  45   29   42 1
  46   29   43 1
  47   30   44 1
  48   30   45 1
  49   30   46 1

#	End of record

