#	Name: ASD08178230
#	Creating user name:	WinNT
#	Creation time:	15. 06. 2019 21:18

#	Modifying user name:	WinNT
#	Modification time:	15. 06. 2019 21:18

#	Program:	/corina/corina34_cracker 3.40 0067  02.08.2006

@<TRIPOS>MOLECULE
ASD08178230
  84   87    0    0    0
SMALL
NO_CHARGES


@<TRIPOS>ATOM
   1 C1            -0.0191     1.5027     0.0207 C.ar    
   2 C2             0.0010    -0.0042     0.0166 C.3     
   3 C3            -0.8034    -0.5283     1.2078 C.3     
   4 C4            -0.7830    -2.0581     1.2036 C.3     
   5 C5            -1.5874    -2.5822     2.3949 C.3     
   6 C6            -1.5673    -4.0891     2.3907 C.2     
   7 N7            -0.6926    -4.8430     2.9773 N.2     
   8 N8            -0.8493    -6.0898     2.8558 N.2     
   9 C9            -1.8644    -6.5050     2.1598 C.2     
  10 S10           -2.7350    -5.1430     1.5925 S.3     
  11 N11           -2.1931    -7.8348     1.9197 N.am    
  12 C12           -1.4281    -8.8206     2.4289 C.2     
  13 C13           -1.7844   -10.2616     2.1687 C.3     
  14 O14           -0.4530    -8.5481     3.0966 O.2     
  15 C15           -0.7780   -11.1576     2.8435 C.ar    
  16 C16           -0.9904   -11.5805     4.1421 C.ar    
  17 C17           -0.0670   -12.4025     4.7612 C.ar    
  18 C18            1.0682   -12.8017     4.0814 C.ar    
  19 C19            1.2802   -12.3794     2.7821 C.ar    
  20 C20            0.3550   -11.5612     2.1617 C.ar    
  21 C21            1.1728     2.2124     0.0064 C.ar    
  22 C22            1.1067     3.5974     0.0109 C.ar    
  23 C23           -0.1542     4.1903     0.0295 C.ar    
  24 N24           -1.2376     3.4283     0.0422 N.ar    
  25 N25           -1.1697     2.1466     0.0324 N.ar    
  26 N26           -0.2749     5.5795     0.0353 N.am    
  27 C27           -1.4926     6.1505    -0.0517 C.2     
  28 C28           -1.6342     7.6458     0.0713 C.3     
  29 O29           -2.4744     5.4610    -0.2290 O.2     
  30 C30           -3.0867     8.0253    -0.0606 C.ar    
  31 C31           -3.8892     8.0891     1.0632 C.ar    
  32 C32           -3.6151     8.3153    -1.3046 C.ar    
  33 C33           -4.9474     8.6634    -1.4256 C.ar    
  34 C34           -5.7514     8.7212    -0.3026 C.ar    
  35 C35           -5.2215     8.4372     0.9422 C.ar    
  36 C36            2.5182   -12.8143     2.0409 C.3     
  37 C37            2.2353   -14.1219     1.2985 C.3     
  38 N38            3.4388   -14.5446     0.5781 N.am    
  39 C39            3.4244   -15.6780    -0.1512 C.2     
  40 O40            4.5305   -16.0665    -0.8133 O.3     
  41 O41            2.4133   -16.3491    -0.2110 O.2     
  42 C42            4.4425   -17.2975    -1.5784 C.3     
  43 C43            3.3530   -17.1590    -2.6436 C.3     
  44 C44            5.7861   -17.5739    -2.2560 C.3     
  45 C45            4.0956   -18.4565    -0.6417 C.3     
  46 H46           -0.4409    -0.3709    -0.9099 H       
  47 H47            1.0307    -0.3540     0.0914 H       
  48 H48           -0.3615    -0.1615     2.1343 H       
  49 H49           -1.8331    -0.1785     1.1331 H       
  50 H50           -1.2249    -2.4249     0.2772 H       
  51 H51            0.2467    -2.4079     1.2784 H       
  52 H52           -1.1455    -2.2155     3.3213 H       
  53 H53           -2.6171    -2.2324     2.3201 H       
  54 H54           -2.9730    -8.0528     1.3857 H       
  55 H55           -2.7782   -10.4676     2.5661 H       
  56 H56           -1.7761   -10.4498     1.0951 H       
  57 H57           -1.8774   -11.2685     4.6733 H       
  58 H58           -0.2326   -12.7323     5.7762 H       
  59 H59            1.7898   -13.4432     4.5652 H       
  60 H60            0.5206   -11.2314     1.1467 H       
  61 H61            2.1241     1.7012    -0.0074 H       
  62 H62            2.0044     4.1978     0.0007 H       
  63 H63            0.5176     6.1349     0.1018 H       
  64 H64           -1.2615     7.9672     1.0438 H       
  65 H65           -1.0588     8.1313    -0.7169 H       
  66 H66           -3.4753     7.8665     2.0356 H       
  67 H67           -2.9870     8.2701    -2.1820 H       
  68 H68           -5.3601     8.8906    -2.3974 H       
  69 H69           -6.7922     8.9936    -0.3970 H       
  70 H70           -5.8496     8.4823     1.8196 H       
  71 H71            2.8022   -12.0437     1.3243 H       
  72 H72            3.3313   -12.9680     2.7505 H       
  73 H73            1.9513   -14.8925     2.0151 H       
  74 H74            1.4222   -13.9682     0.5890 H       
  75 H75            4.2460   -14.0089     0.6259 H       
  76 H76            3.6001   -16.3333    -3.3109 H       
  77 H77            3.2869   -18.0831    -3.2180 H       
  78 H78            2.3958   -16.9621    -2.1609 H       
  79 H79            6.5623   -17.6726    -1.4971 H       
  80 H80            5.7200   -18.4980    -2.8304 H       
  81 H81            6.0332   -16.7482    -2.9233 H       
  82 H82            3.1384   -18.2595    -0.1590 H       
  83 H83            4.0295   -19.3805    -1.2161 H       
  84 H84            4.8718   -18.5551     0.1172 H       
@<TRIPOS>BOND
   1    1    2 1
   2    1   21 ar
   3    1   25 ar
   4    2    3 1
   5    2   46 1
   6    2   47 1
   7    3    4 1
   8    3   48 1
   9    3   49 1
  10    4    5 1
  11    4   50 1
  12    4   51 1
  13    5    6 1
  14    5   52 1
  15    5   53 1
  16    6    7 2
  17    6   10 1
  18    7    8 1
  19    8    9 2
  20    9   10 1
  21    9   11 1
  22   11   12 am
  23   11   54 1
  24   12   13 1
  25   12   14 2
  26   13   15 1
  27   13   55 1
  28   13   56 1
  29   15   16 ar
  30   15   20 ar
  31   16   17 ar
  32   16   57 1
  33   17   18 ar
  34   17   58 1
  35   18   19 ar
  36   18   59 1
  37   19   20 ar
  38   19   36 1
  39   20   60 1
  40   21   22 ar
  41   21   61 1
  42   22   23 ar
  43   22   62 1
  44   23   24 ar
  45   23   26 1
  46   24   25 ar
  47   26   27 am
  48   26   63 1
  49   27   28 1
  50   27   29 2
  51   28   30 1
  52   28   64 1
  53   28   65 1
  54   30   31 ar
  55   30   32 ar
  56   31   35 ar
  57   31   66 1
  58   32   33 ar
  59   32   67 1
  60   33   34 ar
  61   33   68 1
  62   34   35 ar
  63   34   69 1
  64   35   70 1
  65   36   37 1
  66   36   71 1
  67   36   72 1
  68   37   38 1
  69   37   73 1
  70   37   74 1
  71   38   39 am
  72   38   75 1
  73   39   40 1
  74   39   41 2
  75   40   42 1
  76   42   43 1
  77   42   44 1
  78   42   45 1
  79   43   76 1
  80   43   77 1
  81   43   78 1
  82   44   79 1
  83   44   80 1
  84   44   81 1
  85   45   82 1
  86   45   83 1
  87   45   84 1

#	End of record

