#	Name: ASD01811815
#	Creating user name:	WinNT
#	Creation time:	15. 06. 2019 19:27

#	Modifying user name:	WinNT
#	Modification time:	15. 06. 2019 19:27

#	Program:	/corina/corina34_cracker 3.40 0067  02.08.2006

@<TRIPOS>MOLECULE
ASD01811815
  61   64    0    0    0
SMALL
NO_CHARGES


@<TRIPOS>ATOM
   1 C1             1.0058     1.7337     0.6423 C.ar    
   2 C2             0.6633     0.4026     0.4742 C.ar    
   3 C3            -0.6638     0.0137     0.5256 C.ar    
   4 C4            -1.6551     0.9474     0.7449 C.ar    
   5 C5            -1.3176     2.2914     0.9159 C.ar    
   6 C6             0.0253     2.6722     0.8673 C.ar    
   7 C7             2.4521     2.1532     0.5851 C.3     
   8 C8             1.7388    -0.6254     0.2340 C.3     
   9 C9            -1.0277    -1.4369     0.3405 C.3     
  10 C10           -0.9146    -2.1555     1.6603 C.ar    
  11 C11           -2.0086    -2.2275     2.5029 C.ar    
  12 C12           -1.9075    -2.8857     3.7133 C.ar    
  13 C13           -0.7071    -3.4746     4.0831 C.ar    
  14 C14            0.3891    -3.4010     3.2360 C.ar    
  15 C15            0.2812    -2.7465     2.0241 C.ar    
  16 O16           -0.6050    -4.1223     5.2735 O.3     
  17 C17           -1.8023    -4.2617     6.0410 C.3     
  18 C18           -1.6789    -5.4770     6.9623 C.3     
  19 C19           -2.0177    -3.0028     6.8834 C.3     
  20 C20           -2.1319     3.4973     1.1604 C.2     
  21 N21           -1.3427     4.5813     1.2555 N.am    
  22 C22            0.0537     4.1646     1.0836 C.3     
  23 O23           -3.3432     3.5089     1.2607 O.2     
  24 C24           -1.8009     5.9520     1.4952 C.3     
  25 C25           -2.5426     6.0171     2.8338 C.3     
  26 C26           -3.0837     7.4357     3.0366 C.3     
  27 C27           -3.9845     7.8037     1.8548 C.3     
  28 O28           -3.2419     7.6928     0.6389 O.3     
  29 C29           -2.7513     6.3773     0.3728 C.3     
  30 O30           -1.6427     5.6925     3.8953 O.3     
  31 H31           -2.6896     0.6398     0.7839 H       
  32 H32            2.7174     2.4038    -0.4420 H       
  33 H33            2.6032     3.0245     1.2223 H       
  34 H34            3.0819     1.3346     0.9336 H       
  35 H35            2.0815    -1.0227     1.1894 H       
  36 H36            1.3371    -1.4363    -0.3737 H       
  37 H37            2.5756    -0.1607    -0.2874 H       
  38 H38           -2.0513    -1.5107    -0.0268 H       
  39 H39           -0.3492    -1.8926    -0.3806 H       
  40 H40           -2.9427    -1.7686     2.2147 H       
  41 H41           -2.7621    -2.9413     4.3712 H       
  42 H42            1.3246    -3.8587     3.5216 H       
  43 H43            1.1342    -2.6889     1.3643 H       
  44 H44           -2.6501    -4.3993     5.3698 H       
  45 H45           -0.8311    -5.3394     7.6335 H       
  46 H46           -2.5922    -5.5834     7.5477 H       
  47 H47           -1.5254    -6.3738     6.3622 H       
  48 H48           -2.1057    -2.1371     6.2270 H       
  49 H49           -2.9310    -3.1092     7.4687 H       
  50 H50           -1.1699    -2.8653     7.5545 H       
  51 H51            0.6287     4.4031     1.9784 H       
  52 H52            0.4882     4.6601     0.2154 H       
  53 H53           -0.9434     6.6244     1.5208 H       
  54 H54           -3.3708     5.3085     2.8266 H       
  55 H55           -3.6603     7.4770     3.9608 H       
  56 H56           -2.2522     8.1381     3.0934 H       
  57 H57           -4.8375     7.1258     1.8229 H       
  58 H58           -4.3383     8.8280     1.9725 H       
  59 H59           -2.2166     6.3740    -0.5770 H       
  60 H60           -3.5880     5.6807     0.3216 H       
  61 H61           -2.0464     5.7142     4.7737 H       
@<TRIPOS>BOND
   1    1    2 ar
   2    1    7 1
   3    1    6 ar
   4    2    3 ar
   5    2    8 1
   6    3    4 ar
   7    3    9 1
   8    4    5 ar
   9    4   31 1
  10    5    6 ar
  11    5   20 1
  12    6   22 1
  13    7   32 1
  14    7   33 1
  15    7   34 1
  16    8   35 1
  17    8   36 1
  18    8   37 1
  19    9   10 1
  20    9   38 1
  21    9   39 1
  22   10   11 ar
  23   10   15 ar
  24   11   12 ar
  25   11   40 1
  26   12   13 ar
  27   12   41 1
  28   13   14 ar
  29   13   16 1
  30   14   15 ar
  31   14   42 1
  32   15   43 1
  33   16   17 1
  34   17   18 1
  35   17   19 1
  36   17   44 1
  37   18   45 1
  38   18   46 1
  39   18   47 1
  40   19   48 1
  41   19   49 1
  42   19   50 1
  43   20   21 am
  44   20   23 2
  45   21   22 1
  46   21   24 1
  47   22   51 1
  48   22   52 1
  49   24   25 1
  50   24   29 1
  51   24   53 1
  52   25   26 1
  53   25   30 1
  54   25   54 1
  55   26   27 1
  56   26   55 1
  57   26   56 1
  58   27   28 1
  59   27   57 1
  60   27   58 1
  61   28   29 1
  62   29   59 1
  63   29   60 1
  64   30   61 1

#	End of record

