#	Name: ASD01813369
#	Creating user name:	WinNT
#	Creation time:	15. 06. 2019 19:30

#	Modifying user name:	WinNT
#	Modification time:	15. 06. 2019 19:30

#	Program:	/corina/corina34_cracker 3.40 0067  02.08.2006

@<TRIPOS>MOLECULE
ASD01813369
  54   58    0    0    0
SMALL
NO_CHARGES


@<TRIPOS>ATOM
   1 C1            -0.0169     1.3972     0.0097 C.2     
   2 C2             0.0021    -0.0041     0.0020 C.2     
   3 C3             1.1986    -0.6593    -0.0129 C.2     
   4 C4             2.3918     0.0821    -0.0204 C.2     
   5 N5             2.3437     1.4497    -0.0122 N.am    
   6 C6             1.1421     2.0937     0.0024 C.2     
   7 C7             3.6227    -0.5889    -0.0356 C.2     
   8 C8             4.7877     0.1218    -0.0425 C.2     
   9 C9             4.7345     1.5280    -0.0346 C.2     
  10 C10            3.4812     2.1736    -0.0189 C.2     
  11 O11            3.4258     3.3917    -0.0123 O.2     
  12 C12            5.9703     2.3140    -0.0413 C.2     
  13 O13            5.9124     3.6618    -0.0337 O.3     
  14 O14            7.0487     1.7516    -0.0537 O.2     
  15 C15            3.6593    -2.0954    -0.0439 C.3     
  16 C16            3.7837    -2.5946    -1.4848 C.3     
  17 N17            3.8194    -4.0631    -1.4929 N.3     
  18 C18            2.5413    -4.6227    -1.0388 C.3     
  19 C19            2.5572    -6.1220    -1.1507 C.ar    
  20 C20            3.4834    -6.7892    -1.9282 C.ar    
  21 C21            4.5391    -6.0507    -2.7073 C.3     
  22 C22            4.1557    -4.5751    -2.8308 C.3     
  23 C23            1.6134    -6.8662    -0.4542 C.ar    
  24 N24            1.6272    -8.1836    -0.5557 N.ar    
  25 C25            2.5288    -8.7940    -1.3123 C.ar    
  26 N26            3.4423    -8.1120    -1.9883 N.ar    
  27 C27            2.5147   -10.2742    -1.4044 C.ar    
  28 C28            1.5622   -11.0098    -0.7014 C.ar    
  29 C29            1.5536   -12.3869    -0.7912 C.ar    
  30 C30            2.4881   -13.0373    -1.5768 C.ar    
  31 C31            3.4357   -12.3124    -2.2767 C.ar    
  32 C32            3.4503   -10.9346    -2.1989 C.ar    
  33 H33           -0.9605     1.9226     0.0170 H       
  34 H34           -0.9233    -0.5609     0.0082 H       
  35 H35            1.2282    -1.7389    -0.0187 H       
  36 H36            1.1156     3.1733     0.0087 H       
  37 H37            5.7393    -0.3889    -0.0536 H       
  38 H38            6.7544     4.1373    -0.0385 H       
  39 H39            4.5153    -2.4412     0.5356 H       
  40 H40            2.7412    -2.4836     0.3971 H       
  41 H41            2.9277    -2.2488    -2.0643 H       
  42 H42            4.7018    -2.2064    -1.9259 H       
  43 H43            2.3730    -4.3404     0.0005 H       
  44 H44            1.7343    -4.2237    -1.6532 H       
  45 H45            5.4954    -6.1345    -2.1910 H       
  46 H46            4.6264    -6.4868    -3.7024 H       
  47 H47            3.2921    -4.4752    -3.4883 H       
  48 H48            4.9955    -4.0117    -3.2377 H       
  49 H49            0.8770    -6.3736     0.1634 H       
  50 H50            0.8326   -10.5030    -0.0872 H       
  51 H51            0.8160   -12.9579    -0.2468 H       
  52 H52            2.4780   -14.1152    -1.6436 H       
  53 H53            4.1630   -12.8254    -2.8886 H       
  54 H54            4.1903   -10.3695    -2.7461 H       
@<TRIPOS>BOND
   1    1    2 1
   2    1    6 2
   3    1   33 1
   4    2    3 2
   5    2   34 1
   6    3    4 1
   7    3   35 1
   8    4    5 1
   9    4    7 2
  10    5    6 1
  11    5   10 am
  12    6   36 1
  13    7    8 1
  14    7   15 1
  15    8    9 2
  16    8   37 1
  17    9   10 1
  18    9   12 1
  19   10   11 2
  20   12   13 1
  21   12   14 2
  22   13   38 1
  23   15   16 1
  24   15   39 1
  25   15   40 1
  26   16   17 1
  27   16   41 1
  28   16   42 1
  29   17   18 1
  30   17   22 1
  31   18   19 1
  32   18   43 1
  33   18   44 1
  34   19   20 ar
  35   19   23 ar
  36   20   21 1
  37   20   26 ar
  38   21   22 1
  39   21   45 1
  40   21   46 1
  41   22   47 1
  42   22   48 1
  43   23   24 ar
  44   23   49 1
  45   24   25 ar
  46   25   26 ar
  47   25   27 1
  48   27   28 ar
  49   27   32 ar
  50   28   29 ar
  51   28   50 1
  52   29   30 ar
  53   29   51 1
  54   30   31 ar
  55   30   52 1
  56   31   32 ar
  57   31   53 1
  58   32   54 1

#	End of record

