#	Name: ASD01140280
#	Creating user name:	WinNT
#	Creation time:	15. 06. 2019 19:00

#	Modifying user name:	WinNT
#	Modification time:	15. 06. 2019 19:00

#	Program:	/corina/corina34_cracker 3.40 0067  02.08.2006

@<TRIPOS>MOLECULE
ASD01140280
  34   34    0    0    0
SMALL
NO_CHARGES


@<TRIPOS>ATOM
   1 C1            -0.0185     1.5128     0.0104 C.3     
   2 C2             0.0021    -0.0041     0.0020 C.2     
   3 N3             1.2075    -0.6116    -0.0128 N.am    
   4 C4             2.3508     0.0831    -0.0195 C.2     
   5 N5             2.4325     1.4185    -0.0126 N.am    
   6 C6             1.3330     2.2017     0.0012 C.2     
   7 O7            -1.0258    -0.6468     0.0088 O.2     
   8 O8             3.3910    -0.5445    -0.0324 O.2     
   9 O9             1.4225     3.4107     0.0064 O.2     
  10 C10           -0.8019     1.9850    -1.2161 C.3     
  11 C11           -0.7783     1.9718     1.2565 C.3     
  12 C12           -0.0702     1.4477     2.5075 C.3     
  13 C13           -0.1179     1.4745    -2.4858 C.3     
  14 C14           -0.9013     1.9467    -3.7123 C.3     
  15 C15           -0.8358     3.4726    -3.8028 C.3     
  16 C16           -0.2907     1.3343    -4.9744 C.3     
  17 H17            1.2458    -1.5809    -0.0183 H       
  18 H18            3.3078     1.8364    -0.0178 H       
  19 H19           -1.8189     1.5957    -1.1696 H       
  20 H20           -0.8303     3.0745    -1.2317 H       
  21 H21           -0.8063     3.0610     1.2843 H       
  22 H22           -1.7961     1.5828     1.2253 H       
  23 H23           -0.0422     0.3584     2.4796 H       
  24 H24            0.9476     1.8366     2.5387 H       
  25 H25           -0.6115     1.7746     3.3952 H       
  26 H26            0.8991     1.8638    -2.5323 H       
  27 H27           -0.0895     0.3850    -2.4703 H       
  28 H28           -1.9411     1.6324    -3.6224 H       
  29 H29           -1.3939     3.8091    -4.6765 H       
  30 H30           -1.2708     3.9090    -2.9036 H       
  31 H31            0.2040     3.7870    -3.8927 H       
  32 H32           -0.3374     0.2472    -4.9099 H       
  33 H33           -0.8488     1.6707    -5.8481 H       
  34 H34            0.7491     1.6486    -5.0643 H       
@<TRIPOS>BOND
   1    1    2 1
   2    1    6 1
   3    1   10 1
   4    1   11 1
   5    2    3 am
   6    2    7 2
   7    3    4 am
   8    3   17 1
   9    4    5 am
  10    4    8 2
  11    5    6 am
  12    5   18 1
  13    6    9 2
  14   10   13 1
  15   10   19 1
  16   10   20 1
  17   11   12 1
  18   11   21 1
  19   11   22 1
  20   12   23 1
  21   12   24 1
  22   12   25 1
  23   13   14 1
  24   13   26 1
  25   13   27 1
  26   14   15 1
  27   14   16 1
  28   14   28 1
  29   15   29 1
  30   15   30 1
  31   15   31 1
  32   16   32 1
  33   16   33 1
  34   16   34 1

#	End of record

