#	Name: ASD01410447
#	Creating user name:	WinNT
#	Creation time:	15. 06. 2019 19:17

#	Modifying user name:	WinNT
#	Modification time:	15. 06. 2019 19:17

#	Program:	/corina/corina34_cracker 3.40 0067  02.08.2006

@<TRIPOS>MOLECULE
ASD01410447
  51   53    0    0    0
SMALL
NO_CHARGES


@<TRIPOS>ATOM
   1 C1             1.6489     4.2098    -2.3777 C.ar    
   2 C2             2.5493     4.1511    -3.4322 C.ar    
   3 C3             3.6761     3.3612    -3.3154 C.ar    
   4 N4             3.9037     2.6659    -2.2176 N.ar    
   5 C5             3.0692     2.6960    -1.1914 C.ar    
   6 C6             1.9160     3.4687    -1.2395 C.ar    
   7 C7             0.9686     3.5003    -0.0680 C.3     
   8 F8            -0.1074     4.3450    -0.3611 F       
   9 F9             0.4928     2.2086     0.1819 F       
  10 F10            1.6408     3.9766     1.0627 F       
  11 C11            4.2497    -0.2345    -0.0337 C.ar    
  12 C12            4.4244     1.1422    -0.1096 C.ar    
  13 O13            3.3424     1.9651    -0.0816 O.3     
  14 C14            5.3411    -1.0788    -0.0608 C.ar    
  15 C15            6.6232    -0.5573    -0.1643 C.ar    
  16 C16            6.8064     0.8318    -0.2412 C.ar    
  17 C17            5.6952     1.6779    -0.2130 C.ar    
  18 C18            8.1640     1.3951    -0.3508 C.2     
  19 O19            9.1207     0.6557    -0.4719 O.2     
  20 O20            8.3444     2.7301    -0.3167 O.3     
  21 N21            7.7253    -1.4106    -0.1911 N.am    
  22 C22            7.5843    -2.6801    -0.6215 C.2     
  23 H23            8.5935    -1.0908     0.0999 H       
  24 O24            6.5250    -3.0503    -1.0815 O.2     
  25 C25            8.7430    -3.6394    -0.5310 C.3     
  26 C26            8.3205    -5.0027    -1.0823 C.3     
  27 C27            9.4969    -5.9767    -0.9904 C.3     
  28 C28            9.9215    -6.1271     0.4717 C.3     
  29 C29           10.3440    -4.7638     1.0230 C.3     
  30 C30            9.1676    -3.7898     0.9311 C.3     
  31 C31           11.0979    -7.1011     0.5636 C.3     
  32 H32            0.7624     4.8232    -2.4419 H       
  33 H33            2.3705     4.7168    -4.3347 H       
  34 H34            4.3797     3.3117    -4.1333 H       
  35 H35            3.2546    -0.6456     0.0514 H       
  36 H36            5.1973    -2.1475    -0.0011 H       
  37 H37            5.8282     2.7480    -0.2721 H       
  38 H38            9.2529     3.0525    -0.3922 H       
  39 H39            9.5795    -3.2549    -1.1146 H       
  40 H40            7.4841    -5.3872    -0.4987 H       
  41 H41            8.0180    -4.8955    -2.1239 H       
  42 H42            9.1959    -6.9479    -1.3831 H       
  43 H43           10.3334    -5.5922    -1.5740 H       
  44 H44            9.0851    -6.5116     1.0553 H       
  45 H45           10.6465    -4.8710     2.0646 H       
  46 H46           11.1805    -4.3793     0.4394 H       
  47 H47            9.4686    -2.8186     1.3238 H       
  48 H48            8.3311    -4.1743     1.5147 H       
  49 H49           11.9344    -6.7166    -0.0200 H       
  50 H50           11.4004    -7.2083     1.6052 H       
  51 H51           10.7970    -8.0723     0.1709 H       
@<TRIPOS>BOND
   1    1    2 ar
   2    1    6 ar
   3    1   32 1
   4    2    3 ar
   5    2   33 1
   6    3    4 ar
   7    3   34 1
   8    4    5 ar
   9    5    6 ar
  10    5   13 1
  11    6    7 1
  12    7    8 1
  13    7    9 1
  14    7   10 1
  15   11   12 ar
  16   11   14 ar
  17   11   35 1
  18   12   13 1
  19   12   17 ar
  20   14   15 ar
  21   14   36 1
  22   15   16 ar
  23   15   21 1
  24   16   17 ar
  25   16   18 1
  26   17   37 1
  27   18   19 2
  28   18   20 1
  29   20   38 1
  30   21   22 am
  31   21   23 1
  32   22   24 2
  33   22   25 1
  34   25   26 1
  35   25   30 1
  36   25   39 1
  37   26   27 1
  38   26   40 1
  39   26   41 1
  40   27   28 1
  41   27   42 1
  42   27   43 1
  43   28   29 1
  44   28   31 1
  45   28   44 1
  46   29   30 1
  47   29   45 1
  48   29   46 1
  49   30   47 1
  50   30   48 1
  51   31   49 1
  52   31   50 1
  53   31   51 1

#	End of record

