#	Name: ASD02560543
#	Creating user name:	WinNT
#	Creation time:	15. 06. 2019 20:25

#	Modifying user name:	WinNT
#	Modification time:	15. 06. 2019 20:25

#	Program:	/corina/corina34_cracker 3.40 0067  02.08.2006

@<TRIPOS>MOLECULE
ASD02560543
  49   52    0    0    0
SMALL
NO_CHARGES


@<TRIPOS>ATOM
   1 N1            -0.0191     1.2805     0.0820 N.2     
   2 N2            -0.0010    -0.0042     0.0570 N.2     
   3 C3             1.1979     1.7476     0.0504 C.2     
   4 N4             2.0453     0.6720     0.0018 N.pl3   
   5 C5             1.2383    -0.4337     0.0077 C.2     
   6 S6             1.7636    -2.1149    -0.0412 S.3     
   7 C7             0.1569    -2.9474    -0.0038 C.3     
   8 C8             0.3635    -4.4398    -0.0386 C.2     
   9 O9             1.4864    -4.8956    -0.0842 O.2     
  10 N10           -0.6997    -5.2679    -0.0191 N.am    
  11 C11            3.4446     0.6983    -0.0442 C.ar    
  12 Br12           1.7000     3.5707     0.0677 Br      
  13 C13            4.1782     0.6883     1.1213 C.ar    
  14 C14            5.5696     0.7138     1.0868 C.ar    
  15 C15            6.2428     0.7492    -0.0960 C.ar    
  16 C16            5.5316     0.7605    -1.3079 C.ar    
  17 C17            4.1151     0.7294    -1.2850 C.ar    
  18 C18            6.2013     0.7968    -2.5438 C.ar    
  19 C19            5.4845     0.8069    -3.6995 C.ar    
  20 C20            4.0867     0.7817    -3.6783 C.ar    
  21 C21            3.4049     0.7403    -2.4953 C.ar    
  22 C22           -0.5129    -6.6452    -0.1332 C.ar    
  23 C23           -1.5316    -7.4444    -0.6462 C.ar    
  24 C24           -1.3501    -8.8048    -0.7601 C.ar    
  25 C25           -0.1412    -9.3828    -0.3603 C.ar    
  26 C26            0.8788    -8.5770     0.1537 C.ar    
  27 C27            0.6925    -7.2169     0.2603 C.ar    
  28 C28            0.0570   -10.8391    -0.4801 C.2     
  29 O29           -0.8307   -11.5383    -0.9267 O.2     
  30 Cl30          -3.0318    -6.7251    -1.1420 Cl      
  31 O31            1.2226   -11.3944    -0.0944 O.3     
  32 O32            3.3977     0.7927    -4.8497 O.3     
  33 C33            4.1661     0.8302    -6.0540 C.3     
  34 H34           -0.3723    -2.6751     0.9094 H       
  35 H35           -0.4310    -2.6417    -0.8693 H       
  36 H36           -1.5948    -4.9060     0.0743 H       
  37 H37            3.6682     0.6608     2.0729 H       
  38 H38            6.1241     0.7057     2.0136 H       
  39 H39            7.3226     0.7689    -0.1029 H       
  40 H40            7.2806     0.8169    -2.5751 H       
  41 H41            6.0022     0.8352    -4.6469 H       
  42 H42            2.3250     0.7208    -2.4913 H       
  43 H43           -2.1404    -9.4245    -1.1572 H       
  44 H44            1.8137    -9.0203     0.4633 H       
  45 H45            1.4806    -6.5941     0.6570 H       
  46 H46            1.3058   -12.3529    -0.1920 H       
  47 H47            4.7788     1.7316    -6.0661 H       
  48 H48            4.8103    -0.0478    -6.1014 H       
  49 H49            3.4952     0.8353    -6.9130 H       
@<TRIPOS>BOND
   1    1    2 1
   2    1    3 2
   3    2    5 2
   4    3    4 1
   5    3   12 1
   6    4    5 1
   7    4   11 1
   8    5    6 1
   9    6    7 1
  10    7    8 1
  11    7   34 1
  12    7   35 1
  13    8    9 2
  14    8   10 am
  15   10   22 1
  16   10   36 1
  17   11   13 ar
  18   11   17 ar
  19   13   14 ar
  20   13   37 1
  21   14   15 ar
  22   14   38 1
  23   15   16 ar
  24   15   39 1
  25   16   17 ar
  26   16   18 ar
  27   17   21 ar
  28   18   19 ar
  29   18   40 1
  30   19   20 ar
  31   19   41 1
  32   20   21 ar
  33   20   32 1
  34   21   42 1
  35   22   23 ar
  36   22   27 ar
  37   23   24 ar
  38   23   30 1
  39   24   25 ar
  40   24   43 1
  41   25   26 ar
  42   25   28 1
  43   26   27 ar
  44   26   44 1
  45   27   45 1
  46   28   29 2
  47   28   31 1
  48   31   46 1
  49   32   33 1
  50   33   47 1
  51   33   48 1
  52   33   49 1

#	End of record

