#	Name: ASD01230552
#	Creating user name:	WinNT
#	Creation time:	15. 06. 2019 19:14

#	Modifying user name:	WinNT
#	Modification time:	15. 06. 2019 19:14

#	Program:	/corina/corina34_cracker 3.40 0067  02.08.2006

@<TRIPOS>MOLECULE
ASD01230552
  46   49    0    0    0
SMALL
NO_CHARGES


@<TRIPOS>ATOM
   1 C1            -0.0344     1.1636    -0.2448 C.2     
   2 C2            -0.1150    -0.2877     0.1742 C.3     
   3 C3             0.8630    -0.5156     1.3316 C.3     
   4 C4             2.2611    -0.0571     0.9134 C.3     
   5 C5             2.2542     1.4488     0.6448 C.3     
   6 C6             1.3285     1.7506    -0.5384 C.3     
   7 O7            -1.0329     1.8349    -0.3471 O.2     
   8 O8             3.1894    -0.3486     1.9598 O.3     
   9 C9             4.4912    -0.5072     1.6033 C.ar    
  10 C10            5.4256    -0.9026     2.5511 C.ar    
  11 C11            6.7473    -1.0641     2.1931 C.ar    
  12 C12            7.1453    -0.8300     0.8765 C.ar    
  13 C13            6.2034    -0.4332    -0.0734 C.ar    
  14 C14            4.8825    -0.2789     0.2909 C.ar    
  15 S15            9.4999     2.7189    -0.4032 S.o2    
  16 N16            8.7514     1.3177     0.0597 N.am    
  17 C17            9.3647     0.1591     0.0449 C.2     
  18 N18           10.6584    -0.0487    -0.3407 N.pl3   
  19 C19           11.5359     1.0026    -0.8621 C.3     
  20 C20           11.2618     2.3327    -0.1545 C.3     
  21 C21            8.5638    -1.0018     0.4882 C.2     
  22 C22            9.1546    -2.2457     0.5358 C.2     
  23 C23           10.4987    -2.3742     0.1594 C.2     
  24 C24           11.2019    -1.3064    -0.2549 C.2     
  25 O25            9.2013     2.8435    -1.7869 O.2     
  26 O26            9.0583     3.6879     0.5376 O.2     
  27 H27           -1.1289    -0.5187     0.5008 H       
  28 H28            0.1566    -0.9269    -0.6658 H       
  29 H29            0.5376     0.0564     2.2005 H       
  30 H30            0.8883    -1.5760     1.5828 H       
  31 H31            2.5598    -0.5852     0.0079 H       
  32 H32            1.8958     1.9743     1.5300 H       
  33 H33            3.2653     1.7806     0.4092 H       
  34 H34            1.7337     1.3001    -1.4445 H       
  35 H35            1.2420     2.8292    -0.6697 H       
  36 H36            5.1168    -1.0836     3.5700 H       
  37 H37            7.4737    -1.3710     2.9311 H       
  38 H38            6.5078    -0.2512    -1.0935 H       
  39 H39            4.1520     0.0240    -0.4447 H       
  40 H40           12.5751     0.7166    -0.6999 H       
  41 H41           11.3590     1.1210    -1.9311 H       
  42 H42           11.8793     3.1188    -0.5891 H       
  43 H43           11.4745     2.2379     0.9103 H       
  44 H44            8.5908    -3.1084     0.8585 H       
  45 H45           10.9748    -3.3427     0.2024 H       
  46 H46           12.2368    -1.4435    -0.5318 H       
@<TRIPOS>BOND
   1    1    2 1
   2    1    6 1
   3    1    7 2
   4    2    3 1
   5    2   27 1
   6    2   28 1
   7    3    4 1
   8    3   29 1
   9    3   30 1
  10    4    5 1
  11    4    8 1
  12    4   31 1
  13    5    6 1
  14    5   32 1
  15    5   33 1
  16    6   34 1
  17    6   35 1
  18    8    9 1
  19    9   10 ar
  20    9   14 ar
  21   10   11 ar
  22   10   36 1
  23   11   12 ar
  24   11   37 1
  25   12   13 ar
  26   12   21 1
  27   13   14 ar
  28   13   38 1
  29   14   39 1
  30   15   16 am
  31   15   20 1
  32   15   25 2
  33   15   26 2
  34   16   17 2
  35   17   18 1
  36   17   21 1
  37   18   19 1
  38   18   24 1
  39   19   20 1
  40   19   40 1
  41   19   41 1
  42   20   42 1
  43   20   43 1
  44   21   22 2
  45   22   23 1
  46   22   44 1
  47   23   24 2
  48   23   45 1
  49   24   46 1

#	End of record

