#	Name: ASD01880895
#	Creating user name:	WinNT
#	Creation time:	15. 06. 2019 19:41

#	Modifying user name:	WinNT
#	Modification time:	15. 06. 2019 19:41

#	Program:	/corina/corina34_cracker 3.40 0067  02.08.2006

@<TRIPOS>MOLECULE
ASD01880895
  52   54    0    0    0
SMALL
NO_CHARGES


@<TRIPOS>ATOM
   1 N1            -0.0158     1.3132     0.0093 N.ar    
   2 C2             0.0021    -0.0041     0.0020 C.ar    
   3 N3             1.1304    -0.6846    -0.0120 N.ar    
   4 C4             2.3038    -0.0595    -0.0198 C.ar    
   5 C5             2.3282     1.3306    -0.0130 C.ar    
   6 C6             1.1163     2.0109     0.0022 C.ar    
   7 C7             3.6353     2.0806    -0.0210 C.3     
   8 O8             4.0364     2.3244    -1.3707 O.3     
   9 C9             5.2017     2.9949    -1.5556 C.ar    
  10 C10            5.6509     3.2657    -2.8445 C.ar    
  11 C11            6.8296     3.9443    -3.0301 C.ar    
  12 C12            7.5841     4.3665    -1.9304 C.ar    
  13 C13            7.1282     4.0923    -0.6381 C.ar    
  14 C14            5.9425     3.4154    -0.4575 C.ar    
  15 C15            7.5828     4.3891    -4.2591 C.3     
  16 N16            8.7864     5.0753    -3.7760 N.am    
  17 C17            8.7832     5.0600    -2.4320 C.2     
  18 O18            9.6469     5.5493    -1.7300 O.2     
  19 C19            7.9307     4.5404     0.5562 C.3     
  20 C20           -0.0279     5.5092     0.0300 C.3     
  21 C21           -1.4050     6.1758     0.0468 C.3     
  22 O22            3.4596    -0.7672    -0.0338 O.3     
  23 C23            3.3480    -2.1918    -0.0394 C.3     
  24 O24            1.0887     3.3660     0.0089 O.3     
  25 C25           -0.1974     3.9886     0.0246 C.3     
  26 C26            9.4639     7.1383    -4.9014 C.3     
  27 C27            9.8216     5.6776    -4.6197 C.3     
  28 H28           -0.9347    -0.5415     0.0081 H       
  29 H29            3.5122     3.0307     0.4988 H       
  30 H30            4.3979     1.4869     0.4830 H       
  31 H31            5.0731     2.9421    -3.6976 H       
  32 H32            5.5906     3.2041     0.5415 H       
  33 H33            7.8609     3.5243    -4.8615 H       
  34 H34            6.9710     5.0742    -4.8460 H       
  35 H35            7.6131     5.5400     0.8530 H       
  36 H36            7.7702     3.8479     1.3824 H       
  37 H37            8.9893     4.5576     0.2969 H       
  38 H38            0.5142     5.8176    -0.8639 H       
  39 H39            0.5318     5.8092     0.9160 H       
  40 H40           -1.9647     5.8758    -0.8391 H       
  41 H41           -1.9470     5.8674     0.9408 H       
  42 H42           -1.2842     7.2591     0.0508 H       
  43 H43            2.7992    -2.5097    -0.9259 H       
  44 H44            4.3441    -2.6343    -0.0507 H       
  45 H45            2.8155    -2.5181     0.8539 H       
  46 H46           -0.7395     3.6802     0.9185 H       
  47 H47           -0.7572     3.6886    -0.8613 H       
  48 H48            9.3989     7.6845    -3.9603 H       
  49 H49           10.2341     7.5865    -5.5291 H       
  50 H50            8.5038     7.1847    -5.4153 H       
  51 H51           10.7817     5.6313    -4.1057 H       
  52 H52            9.8865     5.1315    -5.5607 H       
@<TRIPOS>BOND
   1    1    2 ar
   2    1    6 ar
   3    2    3 ar
   4    2   28 1
   5    3    4 ar
   6    4    5 ar
   7    4   22 1
   8    5    6 ar
   9    5    7 1
  10    6   24 1
  11    7    8 1
  12    7   29 1
  13    7   30 1
  14    8    9 1
  15    9   10 ar
  16    9   14 ar
  17   10   11 ar
  18   10   31 1
  19   11   12 ar
  20   11   15 1
  21   12   13 ar
  22   12   17 1
  23   13   14 ar
  24   13   19 1
  25   14   32 1
  26   15   16 1
  27   15   33 1
  28   15   34 1
  29   16   17 am
  30   16   27 1
  31   17   18 2
  32   19   35 1
  33   19   36 1
  34   19   37 1
  35   20   21 1
  36   20   25 1
  37   20   38 1
  38   20   39 1
  39   21   40 1
  40   21   41 1
  41   21   42 1
  42   22   23 1
  43   23   43 1
  44   23   44 1
  45   23   45 1
  46   24   25 1
  47   25   46 1
  48   25   47 1
  49   26   27 1
  50   26   48 1
  51   26   49 1
  52   26   50 1
  53   27   51 1
  54   27   52 1

#	End of record

