#	Name: ASD01230878
#	Creating user name:	WinNT
#	Creation time:	15. 06. 2019 19:15

#	Modifying user name:	WinNT
#	Modification time:	15. 06. 2019 19:15

#	Program:	/corina/corina34_cracker 3.40 0067  02.08.2006

@<TRIPOS>MOLECULE
ASD01230878
  30   32    0    0    0
SMALL
NO_CHARGES


@<TRIPOS>ATOM
   1 C1            -0.0170     1.4005     0.0097 C.ar    
   2 C2             0.0021    -0.0041     0.0020 C.ar    
   3 C3             1.2354    -0.6606    -0.0133 C.ar    
   4 C4             2.3896     0.1064    -0.0201 C.ar    
   5 C5             2.2903     1.4843    -0.0118 C.ar    
   6 N6             1.1145     2.0849     0.0026 N.ar    
   7 N7            -1.2307     2.0741     0.0191 N.pl3   
   8 C8            -1.2586    -0.7729     0.0104 C.2     
   9 C9            -1.5656    -1.7871    -0.8435 C.2     
  10 C10           -2.8020    -2.3524    -0.6400 C.2     
  11 C11           -3.5147    -1.8140     0.3717 C.2     
  12 S12           -2.5916    -0.5239     1.1302 S.3     
  13 C13           -4.8652    -2.2478     0.7841 C.ar    
  14 C14           -5.5100    -1.6159     1.8493 C.ar    
  15 C15           -6.7711    -2.0260     2.2292 C.ar    
  16 C16           -7.3969    -3.0613     1.5576 C.ar    
  17 C17           -6.7635    -3.6922     0.5014 C.ar    
  18 C18           -5.5051    -3.2878     0.1068 C.ar    
  19 H19            1.2878    -1.7393    -0.0192 H       
  20 H20            3.3591    -0.3694    -0.0316 H       
  21 H21            3.1905     2.0809    -0.0168 H       
  22 H22           -2.0624     1.5749     0.0203 H       
  23 H23           -1.2471     3.0439     0.0245 H       
  24 H24           -0.8920    -2.1208    -1.6190 H       
  25 H25           -3.1751    -3.1659    -1.2445 H       
  26 H26           -5.0224    -0.8081     2.3747 H       
  27 H27           -7.2710    -1.5381     3.0529 H       
  28 H28           -8.3841    -3.3787     1.8593 H       
  29 H29           -7.2573    -4.5002    -0.0180 H       
  30 H30           -5.0139    -3.7776    -0.7210 H       
@<TRIPOS>BOND
   1    1    2 ar
   2    1    6 ar
   3    1    7 1
   4    2    3 ar
   5    2    8 1
   6    3    4 ar
   7    3   19 1
   8    4    5 ar
   9    4   20 1
  10    5    6 ar
  11    5   21 1
  12    7   22 1
  13    7   23 1
  14    8    9 2
  15    8   12 1
  16    9   10 1
  17    9   24 1
  18   10   11 2
  19   10   25 1
  20   11   12 1
  21   11   13 1
  22   13   14 ar
  23   13   18 ar
  24   14   15 ar
  25   14   26 1
  26   15   16 ar
  27   15   27 1
  28   16   17 ar
  29   16   28 1
  30   17   18 ar
  31   17   29 1
  32   18   30 1

#	End of record

