#	Name: ASD06170180
#	Creating user name:	WinNT
#	Creation time:	15. 06. 2019 21:05

#	Modifying user name:	WinNT
#	Modification time:	15. 06. 2019 21:05

#	Program:	/corina/corina34_cracker 3.40 0067  02.08.2006

@<TRIPOS>MOLECULE
ASD06170180
  75   80    0    0    0
SMALL
NO_CHARGES


@<TRIPOS>ATOM
   1 N1             3.4816    -1.3745    -6.6007 N.pl3   
   2 N2             4.2783    -0.2305    -6.4950 N.am    
   3 C3             4.2880     0.1686    -5.2061 C.2     
   4 C4             3.4463    -0.7854    -4.4667 C.2     
   5 C5             2.9875    -1.7027    -5.3916 C.2     
   6 O6             4.8775     1.1284    -4.7456 O.2     
   7 C7             4.9526     0.3951    -7.5486 C.ar    
   8 C8             5.2159    -0.3043    -8.7192 C.ar    
   9 C9             5.8816     0.3165    -9.7579 C.ar    
  10 C10            6.2858     1.6331    -9.6333 C.ar    
  11 C11            6.0255     2.3322    -8.4689 C.ar    
  12 C12            5.3552     1.7189    -7.4287 C.ar    
  13 C13            3.1525    -0.7661    -3.0286 C.2     
  14 O14            2.3223     0.0067    -2.5874 O.2     
  15 O15            5.4167    -3.4984    -0.9446 O.3     
  16 C16            6.0187    -2.3506    -1.5473 C.3     
  17 C17            5.0240    -1.1823    -1.4906 C.3     
  18 N18            3.8021    -1.6043    -2.1968 N.am    
  19 C19            3.3367    -2.9129    -1.9721 C.ar    
  20 C20            4.1645    -3.8418    -1.3463 C.ar    
  21 C21            2.0607    -3.2735    -2.3735 C.ar    
  22 C22            1.6062    -4.5608    -2.1548 C.ar    
  23 C23            2.4278    -5.4902    -1.5341 C.ar    
  24 C24            3.7055    -5.1318    -1.1303 C.ar    
  25 O25            1.9797    -6.7560    -1.3213 O.3     
  26 N26           -2.0536    -7.4684    -1.8057 N.ar    
  27 C27           -1.6336    -6.2857    -1.4220 C.ar    
  28 C28           -0.2837    -6.0088    -1.2482 C.ar    
  29 C29            0.6556    -6.9978    -1.4824 C.ar    
  30 C30            0.1921    -8.2677    -1.8952 C.ar    
  31 C31            1.0838    -9.3196    -2.1511 C.ar    
  32 C32            0.6066   -10.5310    -2.5468 C.ar    
  33 C33           -0.7664   -10.7425    -2.7029 C.ar    
  34 C34           -1.6669    -9.7302    -2.4595 C.ar    
  35 C35           -1.2010    -8.4708    -2.0497 C.ar    
  36 O36           -1.2171   -11.9609    -3.0997 O.3     
  37 C37           -0.2340   -12.9705    -3.3372 C.3     
  38 C38            2.0857    -2.8737    -5.0974 C.3     
  39 C39            3.2183    -2.1042    -7.8433 C.3     
  40 C40            4.0992    -3.3540    -7.8973 C.3     
  41 C41            3.7823    -4.2534    -6.7008 C.3     
  42 C42            3.8242    -4.1162    -9.1951 C.3     
  43 O43            5.4748    -2.9695    -7.8531 O.3     
  44 H44            4.9009    -1.3327    -8.8170 H       
  45 H45            6.0870    -0.2269   -10.6683 H       
  46 H46            6.8061     2.1163   -10.4470 H       
  47 H47            6.3428     3.3602    -8.3746 H       
  48 H48            5.1484     2.2668    -6.5213 H       
  49 H49            6.9252    -2.0853    -1.0031 H       
  50 H50            6.2651    -2.5704    -2.5861 H       
  51 H51            4.7890    -0.9466    -0.4527 H       
  52 H52            5.4517    -0.3082    -1.9816 H       
  53 H53            1.4214    -2.5494    -2.8566 H       
  54 H54            0.6115    -4.8426    -2.4670 H       
  55 H55            4.3429    -5.8580    -0.6480 H       
  56 H56           -2.3576    -5.5060    -1.2367 H       
  57 H57            0.0317    -5.0256    -0.9318 H       
  58 H58            2.1469    -9.1683    -2.0348 H       
  59 H59            1.2966   -11.3384    -2.7428 H       
  60 H60           -2.7256    -9.9039    -2.5827 H       
  61 H61            0.4447   -12.6390    -4.1231 H       
  62 H62            0.3301   -13.1507    -2.4221 H       
  63 H63           -0.7270   -13.8917    -3.6476 H       
  64 H64            2.6914    -3.7456    -4.8501 H       
  65 H65            1.4378    -2.6308    -4.2553 H       
  66 H66            1.4758    -3.0919    -5.9741 H       
  67 H67            2.1690    -2.3976    -7.8771 H       
  68 H68            3.4440    -1.4635    -8.6958 H       
  69 H69            2.7331    -4.5467    -6.7345 H       
  70 H70            4.4099    -5.1437    -6.7392 H       
  71 H71            3.9783    -3.7104    -5.7762 H       
  72 H72            4.0499    -3.4755   -10.0476 H       
  73 H73            4.4518    -5.0066    -9.2336 H       
  74 H74            2.7749    -4.4095    -9.2289 H       
  75 H75            5.7468    -2.3969    -8.5833 H       
@<TRIPOS>BOND
   1    1    2 1
   2    1    5 1
   3    1   39 1
   4    2    3 am
   5    2    7 1
   6    3    4 1
   7    3    6 2
   8    4    5 2
   9    4   13 1
  10    5   38 1
  11    7    8 ar
  12    7   12 ar
  13    8    9 ar
  14    8   44 1
  15    9   10 ar
  16    9   45 1
  17   10   11 ar
  18   10   46 1
  19   11   12 ar
  20   11   47 1
  21   12   48 1
  22   13   14 2
  23   13   18 am
  24   15   16 1
  25   15   20 1
  26   16   17 1
  27   16   49 1
  28   16   50 1
  29   17   18 1
  30   17   51 1
  31   17   52 1
  32   18   19 1
  33   19   20 ar
  34   19   21 ar
  35   20   24 ar
  36   21   22 ar
  37   21   53 1
  38   22   23 ar
  39   22   54 1
  40   23   24 ar
  41   23   25 1
  42   24   55 1
  43   25   29 1
  44   26   27 ar
  45   26   35 ar
  46   27   28 ar
  47   27   56 1
  48   28   29 ar
  49   28   57 1
  50   29   30 ar
  51   30   31 ar
  52   30   35 ar
  53   31   32 ar
  54   31   58 1
  55   32   33 ar
  56   32   59 1
  57   33   34 ar
  58   33   36 1
  59   34   35 ar
  60   34   60 1
  61   36   37 1
  62   37   61 1
  63   37   62 1
  64   37   63 1
  65   38   64 1
  66   38   65 1
  67   38   66 1
  68   39   40 1
  69   39   67 1
  70   39   68 1
  71   40   41 1
  72   40   42 1
  73   40   43 1
  74   41   69 1
  75   41   70 1
  76   41   71 1
  77   42   72 1
  78   42   73 1
  79   42   74 1
  80   43   75 1

#	End of record

