#	Name: ASD01915012
#	Creating user name:	WinNT
#	Creation time:	15. 06. 2019 20:04

#	Modifying user name:	WinNT
#	Modification time:	15. 06. 2019 20:04

#	Program:	/corina/corina34_cracker 3.40 0067  02.08.2006

@<TRIPOS>MOLECULE
ASD01915012
  43   46    0    0    0
SMALL
NO_CHARGES


@<TRIPOS>ATOM
   1 C1            -0.0239     1.4962    -0.4617 C.ar    
   2 C2            -0.0418     0.1299    -0.1997 C.ar    
   3 N3             1.0783    -0.5395     0.0282 N.ar    
   4 C4             2.2530     0.0543     0.0176 C.ar    
   5 C5             2.3496     1.4205    -0.2539 C.ar    
   6 C6             1.1871     2.1606    -0.4916 C.ar    
   7 O7            -1.2264    -0.5276    -0.1768 O.3     
   8 C8            -1.1850    -1.9295     0.0972 C.3     
   9 C9            -2.5854    -2.4859     0.0817 C.ar    
  10 C10           -3.1248    -2.9671    -1.0970 C.ar    
  11 C11           -3.3279    -2.5202     1.2465 C.ar    
  12 C12           -4.6147    -3.0316     1.2319 C.ar    
  13 C13           -5.1558    -3.5079     0.0500 C.ar    
  14 C14           -4.4093    -3.4773    -1.1129 C.ar    
  15 F15           -5.3414    -3.0661     2.3703 F       
  16 C16            3.5076    -0.7249     0.3193 C.3     
  17 C17            4.6765    -0.1703    -0.4905 C.3     
  18 N18            4.7804     1.2790    -0.3357 N.am    
  19 C19            3.6797     2.0546    -0.3044 C.2     
  20 O20            3.7819     3.2661    -0.3172 O.2     
  21 C21            6.0434     1.8704    -0.2177 C.ar    
  22 C22            6.4231     2.4665     0.9776 C.ar    
  23 C23            7.6701     3.0491     1.0921 C.ar    
  24 C24            8.5415     3.0391     0.0159 C.ar    
  25 C25            8.1647     2.4455    -1.1771 C.ar    
  26 C26            6.9208     1.8568    -1.2940 C.ar    
  27 F27            9.7608     3.6095     0.1300 F       
  28 H28           -0.9449     2.0300    -0.6438 H       
  29 H29            1.2346     3.2205    -0.6934 H       
  30 H30           -0.5864    -2.4308    -0.6633 H       
  31 H31           -0.7392    -2.0950     1.0780 H       
  32 H32           -2.5422    -2.9439    -2.0061 H       
  33 H33           -2.9046    -2.1487     2.1681 H       
  34 H34           -6.1593    -3.9069     0.0374 H       
  35 H35           -4.8313    -3.8485    -2.0351 H       
  36 H36            3.7349    -0.6466     1.3825 H       
  37 H37            3.3534    -1.7725     0.0607 H       
  38 H38            5.6014    -0.6341    -0.1477 H       
  39 H39            4.5269    -0.4079    -1.5437 H       
  40 H40            5.7436     2.4749     1.8170 H       
  41 H41            7.9656     3.5132     2.0214 H       
  42 H42            8.8457     2.4391    -2.0153 H       
  43 H43            6.6273     1.3940    -2.2247 H       
@<TRIPOS>BOND
   1    1    2 ar
   2    1    6 ar
   3    1   28 1
   4    2    3 ar
   5    2    7 1
   6    3    4 ar
   7    4    5 ar
   8    4   16 1
   9    5    6 ar
  10    5   19 1
  11    6   29 1
  12    7    8 1
  13    8    9 1
  14    8   30 1
  15    8   31 1
  16    9   10 ar
  17    9   11 ar
  18   10   14 ar
  19   10   32 1
  20   11   12 ar
  21   11   33 1
  22   12   13 ar
  23   12   15 1
  24   13   14 ar
  25   13   34 1
  26   14   35 1
  27   16   17 1
  28   16   36 1
  29   16   37 1
  30   17   18 1
  31   17   38 1
  32   17   39 1
  33   18   19 am
  34   18   21 1
  35   19   20 2
  36   21   22 ar
  37   21   26 ar
  38   22   23 ar
  39   22   40 1
  40   23   24 ar
  41   23   41 1
  42   24   25 ar
  43   24   27 1
  44   25   26 ar
  45   25   42 1
  46   26   43 1

#	End of record

