#	Name: ASD01885213
#	Creating user name:	WinNT
#	Creation time:	15. 06. 2019 19:49

#	Modifying user name:	WinNT
#	Modification time:	15. 06. 2019 19:49

#	Program:	/corina/corina34_cracker 3.40 0067  02.08.2006

@<TRIPOS>MOLECULE
ASD01885213
  57   61    0    0    0
SMALL
NO_CHARGES


@<TRIPOS>ATOM
   1 C1             1.5484     1.4579    -1.0838 C.2     
   2 C2             1.6033     0.0534    -1.1156 C.2     
   3 C3             1.2066    -0.6546    -0.0130 C.2     
   4 C4             0.7515     0.0354     1.1313 C.2     
   5 C5             0.7072     1.3822     1.1398 C.2     
   6 N6             1.1002     2.0975     0.0463 N.pl3   
   7 C7             1.1660     3.4314    -0.2306 C.2     
   8 N8             1.6243     3.5578    -1.4482 N.2     
   9 N9             1.8580     2.4009    -1.9606 N.2     
  10 C10            0.7807     4.5543     0.6976 C.3     
  11 N11            1.2514    -2.0467    -0.0204 N.pl3   
  12 C12            2.5313    -2.7601    -0.1465 C.3     
  13 C13            2.6246    -3.7953     0.9796 C.3     
  14 N14            1.4312    -4.6513     0.9536 N.3     
  15 C15            0.2121    -3.8741     1.2140 C.3     
  16 C16            0.0205    -2.8422     0.1037 C.3     
  17 C17            1.5599    -5.7631     1.9050 C.3     
  18 C18            0.2531    -6.5580     1.9405 C.3     
  19 C19            0.3872    -7.7160     2.9314 C.3     
  20 C20            1.5303    -8.6333     2.4922 C.3     
  21 C21            2.8372    -7.8384     2.4567 C.3     
  22 C22            2.7030    -6.6804     1.4658 C.3     
  23 C23            1.9984     4.9740     1.5234 C.3     
  24 C24            1.8428     6.1840     2.4467 C.3     
  25 C25            1.9267     4.7757     3.0388 C.3     
  26 Cl26           2.1662    -0.7725    -2.5350 Cl      
  27 C27            1.6645    -9.7912     3.4832 C.3     
  28 H28            0.4371    -0.5184     2.0035 H       
  29 H29            0.3573     1.9003     2.0205 H       
  30 H30            0.4277     5.4039     0.1131 H       
  31 H31           -0.0126     4.2179     1.3652 H       
  32 H32            2.5760    -3.2643    -1.1119 H       
  33 H33            3.3553    -2.0517    -0.0618 H       
  34 H34            3.5149    -4.4079     0.8376 H       
  35 H35            2.6843    -3.2834     1.9401 H       
  36 H36           -0.6473    -4.5440     1.2420 H       
  37 H37            0.3053    -3.3612     2.1712 H       
  38 H38           -0.8161    -2.1890     0.3513 H       
  39 H39           -0.1757    -3.3517    -0.8398 H       
  40 H40            1.7722    -5.3684     2.8986 H       
  41 H41           -0.5612    -5.9045     2.2534 H       
  42 H42            0.0409    -6.9528     0.9469 H       
  43 H43            0.5995    -7.3212     3.9250 H       
  44 H44           -0.5438    -8.2823     2.9567 H       
  45 H45            1.3181    -9.0280     1.4986 H       
  46 H46            3.0494    -7.4436     3.4503 H       
  47 H47            3.6515    -8.4919     2.1438 H       
  48 H48            2.4908    -7.0752     0.4722 H       
  49 H49            3.6340    -6.1141     1.4405 H       
  50 H50            2.9655     4.8295     1.0417 H       
  51 H51            2.7076     6.8354     2.5728 H       
  52 H52            0.8729     6.6811     2.4659 H       
  53 H53            1.0121     4.3463     3.4474 H       
  54 H54            2.8468     4.5006     3.5544 H       
  55 H55            0.7334   -10.3575     3.5084 H       
  56 H56            2.4788   -10.4447     3.1703 H       
  57 H57            1.8767    -9.3965     4.4767 H       
@<TRIPOS>BOND
   1    1    2 1
   2    1    6 1
   3    1    9 2
   4    2    3 2
   5    2   26 1
   6    3    4 1
   7    3   11 1
   8    4    5 2
   9    4   28 1
  10    5    6 1
  11    5   29 1
  12    6    7 1
  13    7    8 2
  14    7   10 1
  15    8    9 1
  16   10   23 1
  17   10   30 1
  18   10   31 1
  19   11   12 1
  20   11   16 1
  21   12   13 1
  22   12   32 1
  23   12   33 1
  24   13   14 1
  25   13   34 1
  26   13   35 1
  27   14   15 1
  28   14   17 1
  29   15   16 1
  30   15   36 1
  31   15   37 1
  32   16   38 1
  33   16   39 1
  34   17   18 1
  35   17   22 1
  36   17   40 1
  37   18   19 1
  38   18   41 1
  39   18   42 1
  40   19   20 1
  41   19   43 1
  42   19   44 1
  43   20   27 1
  44   20   21 1
  45   20   45 1
  46   21   22 1
  47   21   46 1
  48   21   47 1
  49   22   48 1
  50   22   49 1
  51   23   24 1
  52   23   25 1
  53   23   50 1
  54   24   25 1
  55   24   51 1
  56   24   52 1
  57   25   53 1
  58   25   54 1
  59   27   55 1
  60   27   56 1
  61   27   57 1

#	End of record

