#	Name: ASD01890122
#	Creating user name:	WinNT
#	Creation time:	15. 06. 2019 19:50

#	Modifying user name:	WinNT
#	Modification time:	15. 06. 2019 19:50

#	Program:	/corina/corina34_cracker 3.40 0067  02.08.2006

@<TRIPOS>MOLECULE
ASD01890122
  43   45    0    0    0
SMALL
NO_CHARGES


@<TRIPOS>ATOM
   1 C1             1.4634     0.1274    -0.0953 C.2     
   2 C2            -0.0012    -0.1623     0.1099 C.3     
   3 C3            -0.5371    -0.9112    -1.0830 C.2     
   4 O4             2.0727    -0.4338    -0.9749 O.2     
   5 O5             2.0896     1.0128     0.6956 O.3     
   6 O6             0.2116    -1.5582    -1.7763 O.2     
   7 O7            -1.8462    -0.8594    -1.3753 O.3     
   8 C8            -0.1814    -1.0127     1.3690 C.3     
   9 C9            -1.6680    -1.3096     1.5754 C.3     
  10 C10           -2.3960    -0.0298     1.8966 C.2     
  11 C11            0.5726    -2.3081     1.2124 C.ar    
  12 C12            1.5791    -2.6339     2.1021 C.ar    
  13 C13            2.2707    -3.8221     1.9584 C.ar    
  14 C14            1.9555    -4.6848     0.9253 C.ar    
  15 C15            0.9484    -4.3594     0.0361 C.ar    
  16 C16            0.2538    -3.1732     0.1823 C.ar    
  17 O17           -1.7830     1.0155     1.9691 O.2     
  18 N18           -5.8939    -0.7648     2.3284 N.pl3   
  19 C19           -4.6284    -1.1449     2.0681 C.2     
  20 C20           -3.7964    -0.0466     2.1142 C.2     
  21 C21           -4.6576     1.1085     2.4357 C.ar    
  22 C22           -4.4230     2.4684     2.6174 C.ar    
  23 C23           -5.4738     3.3078     2.9175 C.ar    
  24 C24           -6.7600     2.8023     3.0384 C.ar    
  25 C25           -7.0057     1.4583     2.8614 C.ar    
  26 C26           -5.9579     0.5948     2.5574 C.ar    
  27 H27           -0.5446     0.7757     0.2242 H       
  28 H28            3.0442     1.1105     0.5755 H       
  29 H29           -2.1430    -1.3560    -2.1501 H       
  30 H30            0.2040    -0.4700     2.2322 H       
  31 H31           -2.0815    -1.7442     0.6653 H       
  32 H32           -1.7871    -2.0122     2.4002 H       
  33 H33            1.8254    -1.9599     2.9093 H       
  34 H34            3.0576    -4.0763     2.6531 H       
  35 H35            2.4964    -5.6128     0.8126 H       
  36 H36            0.7023    -5.0332    -0.7713 H       
  37 H37           -0.5355    -2.9206    -0.5102 H       
  38 H38           -6.6566    -1.3638     2.3481 H       
  39 H39           -4.3133    -2.1559     1.8562 H       
  40 H40           -3.4223     2.8637     2.5241 H       
  41 H41           -5.2953     4.3634     3.0595 H       
  42 H42           -7.5766     3.4688     3.2738 H       
  43 H43           -8.0109     1.0753     2.9578 H       
@<TRIPOS>BOND
   1    1    2 1
   2    1    4 2
   3    1    5 1
   4    2    3 1
   5    2    8 1
   6    2   27 1
   7    3    6 2
   8    3    7 1
   9    5   28 1
  10    7   29 1
  11    8    9 1
  12    8   11 1
  13    8   30 1
  14    9   10 1
  15    9   31 1
  16    9   32 1
  17   10   17 2
  18   10   20 1
  19   11   12 ar
  20   11   16 ar
  21   12   13 ar
  22   12   33 1
  23   13   14 ar
  24   13   34 1
  25   14   15 ar
  26   14   35 1
  27   15   16 ar
  28   15   36 1
  29   16   37 1
  30   18   19 1
  31   18   26 1
  32   18   38 1
  33   19   20 2
  34   19   39 1
  35   20   21 1
  36   21   22 ar
  37   21   26 ar
  38   22   23 ar
  39   22   40 1
  40   23   24 ar
  41   23   41 1
  42   24   25 ar
  43   24   42 1
  44   25   26 ar
  45   25   43 1

#	End of record

