#	Name: ASD03731262
#	Creating user name:	WinNT
#	Creation time:	15. 06. 2019 20:45

#	Modifying user name:	WinNT
#	Modification time:	15. 06. 2019 20:45

#	Program:	/corina/corina34_cracker 3.40 0067  02.08.2006

@<TRIPOS>MOLECULE
ASD03731262
  57   62    0    0    0
SMALL
NO_CHARGES


@<TRIPOS>ATOM
   1 N1            -0.0162     1.3436     0.0094 N.am    
   2 C2             0.0560     0.0126     0.2093 C.2     
   3 O3             1.1399    -0.5294     0.3075 O.2     
   4 N4            -1.0733    -0.7174     0.3002 N.am    
   5 C5            -0.9948    -2.1641     0.5174 C.3     
   6 C6            -2.4078    -2.7475     0.5819 C.3     
   7 O7             2.5538    -7.0750     3.4709 O.3     
   8 C8             3.0249    -8.3609     3.9153 C.3     
   9 O9             1.8612    -8.9646     4.5108 O.3     
  10 C10            0.7914    -8.3990     3.8780 C.ar    
  11 C11            1.2177    -7.2366     3.2396 C.ar    
  12 C12           -0.5331    -8.7889     3.7928 C.ar    
  13 C13           -1.4479    -8.0258     3.0734 C.ar    
  14 C14           -1.0119    -6.8622     2.4469 C.ar    
  15 C15            0.3094    -6.4741     2.5248 C.ar    
  16 O16           -2.7770    -8.2375     2.8524 O.3     
  17 C17           -2.2190    -6.2532     1.7853 C.3     
  18 C18           -3.3911    -7.0041     2.4318 C.3     
  19 N19           -2.3293    -4.1941     0.7991 N.am    
  20 C20           -2.3071    -4.7721     2.0167 C.2     
  21 C21           -2.1997    -6.4225     0.2951 C.ar    
  22 C22           -2.1320    -7.5175    -0.5372 C.ar    
  23 C23           -2.1341    -7.3456    -1.9100 C.ar    
  24 C24           -2.2037    -6.0717    -2.4440 C.ar    
  25 C25           -2.2707    -4.9717    -1.6145 C.ar    
  26 C26           -2.2695    -5.1353    -0.2314 C.ar    
  27 O27           -2.3503    -4.2068     3.0889 O.2     
  28 C28            1.1508     2.1159     0.0123 C.ar    
  29 C29            2.3294     1.5969    -0.5067 C.ar    
  30 C30            3.4809     2.3632    -0.5026 C.ar    
  31 C31            3.4576     3.6465     0.0186 C.ar    
  32 C32            2.2849     4.1637     0.5359 C.ar    
  33 C33            1.1307     3.4046     0.5291 C.ar    
  34 C34            4.7133     4.4798     0.0222 C.3     
  35 F35            4.6288     1.8598    -1.0068 F       
  36 H36           -0.8767     1.7655    -0.1404 H       
  37 H37           -1.9380    -0.2849     0.2218 H       
  38 H38           -0.4483    -2.6258    -0.3049 H       
  39 H39           -0.4764    -2.3630     1.4554 H       
  40 H40           -2.9543    -2.2857     1.4042 H       
  41 H41           -2.9262    -2.5485    -0.3560 H       
  42 H42            3.3738    -8.9540     3.0700 H       
  43 H43            3.8166    -8.2440     4.6552 H       
  44 H44           -0.8595    -9.6915     4.2880 H       
  45 H45            0.6362    -5.5729     2.0273 H       
  46 H46           -4.1791    -7.1929     1.7028 H       
  47 H47           -3.7787    -6.4528     3.2884 H       
  48 H48           -2.0776    -8.5113    -0.1180 H       
  49 H49           -2.0819    -8.2042    -2.5631 H       
  50 H50           -2.2052    -5.9375    -3.5157 H       
  51 H51           -2.3242    -3.9801    -2.0390 H       
  52 H52            2.3472     0.5963    -0.9126 H       
  53 H53            2.2698     5.1642     0.9423 H       
  54 H54            0.2139     3.8118     0.9292 H       
  55 H55            4.7718     5.0526    -0.9034 H       
  56 H56            4.6937     5.1627     0.8715 H       
  57 H57            5.5825     3.8269     0.1009 H       
@<TRIPOS>BOND
   1    1    2 am
   2    1   28 1
   3    1   36 1
   4    2    3 2
   5    2    4 am
   6    4    5 1
   7    4   37 1
   8    5    6 1
   9    5   38 1
  10    5   39 1
  11    6   19 1
  12    6   40 1
  13    6   41 1
  14    7    8 1
  15    7   11 1
  16    8    9 1
  17    8   42 1
  18    8   43 1
  19    9   10 1
  20   10   11 ar
  21   10   12 ar
  22   11   15 ar
  23   12   13 ar
  24   12   44 1
  25   13   14 ar
  26   13   16 1
  27   14   15 ar
  28   14   17 1
  29   15   45 1
  30   16   18 1
  31   17   18 1
  32   17   20 1
  33   17   21 1
  34   18   46 1
  35   18   47 1
  36   19   20 am
  37   19   26 1
  38   20   27 2
  39   21   22 ar
  40   21   26 ar
  41   22   23 ar
  42   22   48 1
  43   23   24 ar
  44   23   49 1
  45   24   25 ar
  46   24   50 1
  47   25   26 ar
  48   25   51 1
  49   28   29 ar
  50   28   33 ar
  51   29   30 ar
  52   29   52 1
  53   30   31 ar
  54   30   35 1
  55   31   32 ar
  56   31   34 1
  57   32   33 ar
  58   32   53 1
  59   33   54 1
  60   34   55 1
  61   34   56 1
  62   34   57 1

#	End of record

