#	Name: ASD01411130
#	Creating user name:	WinNT
#	Creation time:	15. 06. 2019 19:19

#	Modifying user name:	WinNT
#	Modification time:	15. 06. 2019 19:19

#	Program:	/corina/corina34_cracker 3.40 0067  02.08.2006

@<TRIPOS>MOLECULE
ASD01411130
  66   68    0    0    0
SMALL
NO_CHARGES


@<TRIPOS>ATOM
   1 C1            -0.2814     1.0667    -0.0414 C.2     
   2 C2             0.9031     1.6734    -0.3830 C.2     
   3 C3             1.9851     0.8418    -0.4058 C.2     
   4 S4             1.4947    -0.7906     0.0238 S.3     
   5 C5            -0.1760    -0.2795     0.2203 C.2     
   6 C6             3.3214     1.2399    -0.7321 C.1     
   7 C7             4.4169     1.5663    -0.9997 C.1     
   8 C8             5.7905     1.9755    -1.3351 C.3     
   9 C9             6.7192     0.7625    -1.2503 C.3     
  10 C10            5.8212     2.5428    -2.7557 C.3     
  11 C11            6.2591     3.0465    -0.3480 C.3     
  12 C12           -1.2479    -1.1236     0.5914 C.2     
  13 O13           -2.3488    -0.6508     0.8060 O.2     
  14 O14           -1.0503    -2.4540     0.7077 O.3     
  15 N15           -1.4900     1.7599     0.0390 N.am    
  16 C16           -1.9307     2.2101     1.2304 C.2     
  17 C17           -3.1975     3.0227     1.3072 C.3     
  18 O18           -1.3077     1.9612     2.2408 O.2     
  19 C19           -4.2893     5.1673     0.6356 C.3     
  20 C20           -3.0031     4.3423     0.5577 C.3     
  21 C21           -3.5296     3.3124     2.7723 C.3     
  22 C22           -4.8157     4.1374     2.8503 C.3     
  23 C23           -4.6213     5.4570     2.1008 C.3     
  24 C24           -5.9075     6.2820     2.1787 C.3     
  25 C25           -2.2797     1.9982    -1.1718 C.3     
  26 O26           -0.7541     3.6602    -1.7720 O.2     
  27 C27           -2.1714     1.3692    -4.0832 C.3     
  28 N28           -1.4272     2.4644    -3.4740 N.am    
  29 C29           -1.4466     2.7481    -2.1712 C.2     
  30 C30           -2.7208     0.6571    -1.7632 C.3     
  31 C31           -3.3008     0.9106    -3.1599 C.3     
  32 C32           -0.6070     3.3070    -4.3480 C.3     
  33 H33            0.9724     2.7258    -0.6155 H       
  34 H34            6.3854    -0.0005    -1.9535 H       
  35 H35            7.7363     1.0655    -1.4986 H       
  36 H36            6.6974     0.3583    -0.2382 H       
  37 H37            5.1596     3.4070    -2.8161 H       
  38 H38            6.8383     2.8459    -3.0041 H       
  39 H39            5.4874     1.7798    -3.4589 H       
  40 H40            6.2373     2.6423     0.6641 H       
  41 H41            7.2762     3.3495    -0.5964 H       
  42 H42            5.5975     3.9106    -0.4084 H       
  43 H43           -1.8407    -2.9480     0.9654 H       
  44 H44           -4.0157     2.4639     0.8528 H       
  45 H45           -4.1508     6.1074     0.1017 H       
  46 H46           -5.1074     4.6085     0.1813 H       
  47 H47           -2.1849     4.9011     1.0121 H       
  48 H48           -2.7665     4.1359    -0.4861 H       
  49 H49           -3.6681     2.3723     3.3063 H       
  50 H50           -2.7114     3.8712     3.2267 H       
  51 H51           -5.6339     3.5786     2.3959 H       
  52 H52           -5.0523     4.3438     3.8941 H       
  53 H53           -3.8032     6.0158     2.5552 H       
  54 H54           -6.7257     5.7233     1.7244 H       
  55 H55           -6.1441     6.4884     3.2225 H       
  56 H56           -5.7690     7.2222     1.6448 H       
  57 H57           -3.1598     2.5896    -0.9194 H       
  58 H58           -2.5930     1.7035    -5.0311 H       
  59 H59           -1.4962     0.5335    -4.2676 H       
  60 H60           -1.8629    -0.0111    -1.8379 H       
  61 H61           -3.4822     0.2075    -1.1258 H       
  62 H62           -4.0645     1.6863    -3.1032 H       
  63 H63           -3.7387    -0.0094    -3.5469 H       
  64 H64           -1.2047     4.1424    -4.7124 H       
  65 H65            0.2470     3.6881    -3.7881 H       
  66 H66           -0.2532     2.7172    -5.1936 H       
@<TRIPOS>BOND
   1    1    2 1
   2    1    5 2
   3    1   15 1
   4    2    3 2
   5    2   33 1
   6    3    4 1
   7    3    6 1
   8    4    5 1
   9    5   12 1
  10    6    7 3
  11    7    8 1
  12    8    9 1
  13    8   10 1
  14    8   11 1
  15    9   34 1
  16    9   35 1
  17    9   36 1
  18   10   37 1
  19   10   38 1
  20   10   39 1
  21   11   40 1
  22   11   41 1
  23   11   42 1
  24   12   13 2
  25   12   14 1
  26   14   43 1
  27   15   16 am
  28   15   25 1
  29   16   18 2
  30   16   17 1
  31   17   21 1
  32   17   20 1
  33   17   44 1
  34   19   20 1
  35   19   23 1
  36   19   45 1
  37   19   46 1
  38   20   47 1
  39   20   48 1
  40   21   22 1
  41   21   49 1
  42   21   50 1
  43   22   23 1
  44   22   51 1
  45   22   52 1
  46   23   24 1
  47   23   53 1
  48   24   54 1
  49   24   55 1
  50   24   56 1
  51   25   30 1
  52   25   29 1
  53   25   57 1
  54   26   29 2
  55   27   28 1
  56   27   31 1
  57   27   58 1
  58   27   59 1
  59   28   29 am
  60   28   32 1
  61   30   31 1
  62   30   60 1
  63   30   61 1
  64   31   62 1
  65   31   63 1
  66   32   64 1
  67   32   65 1
  68   32   66 1

#	End of record

