#	Name: ASD01813312
#	Creating user name:	WinNT
#	Creation time:	15. 06. 2019 19:30

#	Modifying user name:	WinNT
#	Modification time:	15. 06. 2019 19:30

#	Program:	/corina/corina34_cracker 3.40 0067  02.08.2006

@<TRIPOS>MOLECULE
ASD01813312
  55   58    0    0    0
SMALL
NO_CHARGES


@<TRIPOS>ATOM
   1 C1            -0.0184     1.5028     0.0103 C.3     
   2 C2             0.0021    -0.0041     0.0020 C.ar    
   3 C3             0.0059    -0.6970    -1.1978 C.ar    
   4 N4             0.0237    -2.0120    -1.2184 N.ar    
   5 C5             0.0391    -2.7257    -0.0995 C.ar    
   6 C6             0.0367    -2.0952     1.1427 C.ar    
   7 C7             0.0230    -0.7103     1.1947 C.ar    
   8 C8             0.0257     0.0113     2.5177 C.3     
   9 F9            -0.5111    -0.8223     3.5047 F       
  10 C10            1.4397     0.3798     2.8860 C.ar    
  11 C11            2.3682    -0.6133     3.1384 C.ar    
  12 C12            3.6648    -0.2787     3.4767 C.ar    
  13 C13            4.0357     1.0565     3.5627 C.ar    
  14 C14            3.1014     2.0514     3.3083 C.ar    
  15 C15            1.8076     1.7104     2.9654 C.ar    
  16 N16            5.3509     1.3993     3.9062 N.pl3   
  17 C17            5.8398     2.6540     4.0297 C.2     
  18 C18            7.1450     2.5552     4.3731 C.2     
  19 C19            7.4652     1.1961     4.4627 C.2     
  20 N20            6.3897     0.5028     4.1883 N.2     
  21 C21            0.0583    -4.2055    -0.1723 C.2     
  22 O22            0.0724    -4.8638     0.8490 O.2     
  23 N23            0.0603    -4.8212    -1.3711 N.am    
  24 C24            0.0793    -6.2843    -1.4431 C.3     
  25 H25            0.6784    -6.6807    -0.6232 H       
  26 C26           -1.3502    -6.8189    -1.3351 C.3     
  27 C27           -1.3303    -8.3470    -1.4102 C.3     
  28 C28           -0.7217    -8.7841    -2.7442 C.3     
  29 C29            0.7078    -8.2495    -2.8522 C.3     
  30 C30            0.6878    -6.7215    -2.7771 C.3     
  31 H31            0.0888    -6.3252    -3.5969 H       
  32 O32            2.0230    -6.2222    -2.8779 O.3     
  33 H33            1.0042     1.8801     0.0026 H       
  34 H34           -0.5455     1.8639    -0.8728 H       
  35 H35           -0.5286     1.8543     0.9071 H       
  36 H36           -0.0062    -0.1499    -2.1289 H       
  37 H37            0.0489    -2.6773     2.0523 H       
  38 H38           -0.5770     0.9162     2.4392 H       
  39 H39            2.0790    -1.6518     3.0713 H       
  40 H40            4.3893    -1.0548     3.6744 H       
  41 H41            3.3869     3.0908     3.3748 H       
  42 H42            1.0815     2.4839     2.7631 H       
  43 H43            5.2879     3.5703     3.8807 H       
  44 H44            7.8203     3.3799     4.5473 H       
  45 H45            8.4325     0.7893     4.7183 H       
  46 H46            0.0490    -4.2957    -2.1863 H       
  47 H47           -1.7837    -6.5075    -0.3847 H       
  48 H48           -1.9492    -6.4226    -2.1549 H       
  49 H49           -0.7312    -8.7433    -0.5903 H       
  50 H50           -2.3487    -8.7278    -1.3332 H       
  51 H51           -0.7076    -9.8727    -2.7977 H       
  52 H52           -1.3208    -8.3878    -3.5640 H       
  53 H53            1.3068    -8.6458    -2.0323 H       
  54 H54            1.1413    -8.5609    -3.8025 H       
  55 H55            2.4713    -6.4616    -3.7006 H       
@<TRIPOS>BOND
   1    1    2 1
   2    1   33 1
   3    1   34 1
   4    1   35 1
   5    2    7 ar
   6    2    3 ar
   7    3    4 ar
   8    3   36 1
   9    4    5 ar
  10    5    6 ar
  11    5   21 1
  12    6    7 ar
  13    6   37 1
  14    7    8 1
  15    8    9 1
  16    8   10 1
  17    8   38 1
  18   10   15 ar
  19   10   11 ar
  20   11   12 ar
  21   11   39 1
  22   12   13 ar
  23   12   40 1
  24   13   14 ar
  25   13   16 1
  26   14   15 ar
  27   14   41 1
  28   15   42 1
  29   16   20 1
  30   16   17 1
  31   17   18 2
  32   17   43 1
  33   18   19 1
  34   18   44 1
  35   19   20 2
  36   19   45 1
  37   21   22 2
  38   21   23 am
  39   23   24 1
  40   23   46 1
  41   24   25 1
  42   24   30 1
  43   24   26 1
  44   26   27 1
  45   26   47 1
  46   26   48 1
  47   27   28 1
  48   27   49 1
  49   27   50 1
  50   28   29 1
  51   28   51 1
  52   28   52 1
  53   29   30 1
  54   29   53 1
  55   29   54 1
  56   30   31 1
  57   30   32 1
  58   32   55 1

#	End of record

