#	Name: ASD00740005
#	Creating user name:	WinNT
#	Creation time:	15. 06. 2019 18:37

#	Modifying user name:	WinNT
#	Modification time:	15. 06. 2019 18:37

#	Program:	/corina/corina34_cracker 3.40 0067  02.08.2006

@<TRIPOS>MOLECULE
ASD00740005
  50   52    0    0    0
SMALL
NO_CHARGES


@<TRIPOS>ATOM
   1 N1            -0.1483     0.9512    -1.2245 N.am    
   2 C2            -0.2538    -0.3375    -0.8441 C.2     
   3 N3            -1.4559    -0.8437    -0.5049 N.am    
   4 C4            -1.5650    -2.1773    -0.1112 C.2     
   5 N5            -2.6846    -2.7873     0.3641 N.pl3   
   6 N6            -2.3608    -4.1224     0.6377 N.2     
   7 C7            -1.1002    -4.3114     0.3407 C.2     
   8 C8            -0.5727    -3.1087    -0.1378 C.2     
   9 C9            -0.3460    -5.6080     0.4856 C.3     
  10 C10            0.5765    -5.5280     1.7036 C.3     
  11 C11           -1.3386    -6.7572     0.6723 C.3     
  12 C12            0.4898    -5.8552    -0.7718 C.3     
  13 O13            0.7356    -1.0433    -0.8070 O.2     
  14 C14           -3.9383    -2.1867     0.5478 C.ar    
  15 C15            1.1125     1.5072    -1.4712 C.ar    
  16 C16            1.2673     2.4676    -2.4621 C.ar    
  17 C17            2.5123     3.0145    -2.7035 C.ar    
  18 C18            3.6049     2.6063    -1.9589 C.ar    
  19 C19            3.4534     1.6491    -0.9711 C.ar    
  20 C20            2.2094     1.1035    -0.7215 C.ar    
  21 C21           -5.0636    -2.7228    -0.0653 C.ar    
  22 C22           -6.2981    -2.1281     0.1179 C.ar    
  23 C23           -6.4134    -1.0009     0.9103 C.ar    
  24 C24           -5.2954    -0.4644     1.5218 C.ar    
  25 C25           -4.0588    -1.0575     1.3479 C.ar    
  26 Cl26           5.1685     3.2958    -2.2649 Cl      
  27 Cl27          -2.6557    -0.3830     2.1161 Cl      
  28 Cl28          -4.9199    -4.1377    -1.0609 Cl      
  29 C29           -7.7608    -0.3554     1.1077 C.3     
  30 F30           -8.3889    -0.9189     2.2236 F       
  31 F31           -7.5943     1.0187     1.3106 F       
  32 F32           -8.5500    -0.5669    -0.0280 F       
  33 H33           -0.9463     1.4923    -1.3312 H       
  34 H34           -2.2452    -0.2806    -0.5345 H       
  35 H35            0.4436    -2.9457    -0.4649 H       
  36 H36           -0.0189    -5.3519     2.5995 H       
  37 H37            1.1220    -6.4658     1.8085 H       
  38 H38            1.2837    -4.7092     1.5706 H       
  39 H39           -1.9958    -6.8142    -0.1954 H       
  40 H40           -0.7931    -7.6951     0.7772 H       
  41 H41           -1.9340    -6.5811     1.5682 H       
  42 H42            1.1970    -5.0364    -0.9048 H       
  43 H43            1.0353    -6.7930    -0.6670 H       
  44 H44           -0.1674    -5.9122    -1.6395 H       
  45 H45            0.4149     2.7863    -3.0438 H       
  46 H46            2.6333     3.7612    -3.4744 H       
  47 H47            4.3079     1.3317    -0.3919 H       
  48 H48            2.0917     0.3567     0.0497 H       
  49 H49           -7.1733    -2.5442    -0.3588 H       
  50 H50           -5.3889     0.4166     2.1395 H       
@<TRIPOS>BOND
   1    1    2 am
   2    1   15 1
   3    1   33 1
   4    2    3 am
   5    2   13 2
   6    3    4 1
   7    3   34 1
   8    4    5 1
   9    4    8 2
  10    5    6 1
  11    5   14 1
  12    6    7 2
  13    7    8 1
  14    7    9 1
  15    8   35 1
  16    9   10 1
  17    9   11 1
  18    9   12 1
  19   10   36 1
  20   10   37 1
  21   10   38 1
  22   11   39 1
  23   11   40 1
  24   11   41 1
  25   12   42 1
  26   12   43 1
  27   12   44 1
  28   14   21 ar
  29   14   25 ar
  30   15   16 ar
  31   15   20 ar
  32   16   17 ar
  33   16   45 1
  34   17   18 ar
  35   17   46 1
  36   18   19 ar
  37   18   26 1
  38   19   20 ar
  39   19   47 1
  40   20   48 1
  41   21   22 ar
  42   21   28 1
  43   22   23 ar
  44   22   49 1
  45   23   24 ar
  46   23   29 1
  47   24   25 ar
  48   24   50 1
  49   25   27 1
  50   29   30 1
  51   29   31 1
  52   29   32 1

#	End of record

