#	Name: ASD00431189
#	Creating user name:	WinNT
#	Creation time:	15. 06. 2019 18:35

#	Modifying user name:	WinNT
#	Modification time:	15. 06. 2019 18:35

#	Program:	/corina/corina34_cracker 3.40 0067  02.08.2006

@<TRIPOS>MOLECULE
ASD00431189
  51   53    0    0    0
SMALL
NO_CHARGES


@<TRIPOS>ATOM
   1 C1            -0.2079     1.5065     0.3623 C.2     
   2 C2            -0.1730     0.0003     0.3251 C.3     
   3 O3             0.8239     2.1351     0.3518 O.2     
   4 O4            -1.3853     2.1497     0.4014 O.3     
   5 N5             1.2226    -0.4562     0.2795 N.3     
   6 C6             1.2958    -1.9229     0.2423 C.3     
   7 C7             1.1600    -2.4038    -1.2038 C.3     
   8 O8             3.8195    -1.8530     0.5160 O.3     
   9 N9             4.6852    -2.4417     1.1285 N.2     
  10 C10            4.1520    -3.3894     1.8606 C.2     
  11 N11            2.8147    -3.3495     1.6508 N.2     
  12 C12            2.6214    -2.3740     0.7993 C.2     
  13 S13            4.1454    -5.5955     3.7255 S.3     
  14 C14            5.6881    -6.0447     4.3092 C.2     
  15 N15            6.6044    -5.2869     3.7895 N.2     
  16 C16            6.2074    -4.3564     2.9501 C.2     
  17 C17            4.8734    -4.3243     2.7466 C.2     
  18 O18            5.9207    -7.0480     5.1884 O.3     
  19 C19            7.2129    -7.3535     5.4811 C.ar    
  20 C20            8.0082    -6.4351     6.1509 C.ar    
  21 C21            9.3208    -6.7455     6.4481 C.ar    
  22 C22            9.8440    -7.9752     6.0764 C.ar    
  23 C23            9.0490    -8.8933     5.4063 C.ar    
  24 C24            7.7344    -8.5857     5.1148 C.ar    
  25 O25           11.1364    -8.2806     6.3687 O.3     
  26 C26           11.9362    -7.2411     6.9360 C.3     
  27 C27           11.8984    -7.3439     8.4621 C.3     
  28 C28           13.3799    -7.3860     6.4507 C.3     
  29 C29           -1.3430     3.6007     0.4357 C.3     
  30 H30           -0.6560    -0.3965     1.2180 H       
  31 H31           -0.7001    -0.3536    -0.5609 H       
  32 H32            1.7105    -0.0498    -0.5047 H       
  33 H33            0.4880    -2.3423     0.8420 H       
  34 H34            1.9678    -1.9843    -1.8035 H       
  35 H35            1.2143    -3.4921    -1.2314 H       
  36 H36            0.2012    -2.0775    -1.6068 H       
  37 H37            6.8905    -3.6750     2.4649 H       
  38 H38            7.6011    -5.4774     6.4397 H       
  39 H39            9.9400    -6.0306     6.9696 H       
  40 H40            9.4566    -9.8505     5.1163 H       
  41 H41            7.1140    -9.3024     4.5973 H       
  42 H42           11.5446    -6.2718     6.6273 H       
  43 H43           12.2900    -8.3132     8.7708 H       
  44 H44           12.5085    -6.5510     8.8948 H       
  45 H45           10.8699    -7.2407     8.8079 H       
  46 H46           13.4068    -7.3128     5.3634 H       
  47 H47           13.9900    -6.5931     6.8834 H       
  48 H48           13.7715    -8.3553     6.7593 H       
  49 H49           -0.8011     3.9275     1.3232 H       
  50 H50           -0.8366     3.9706    -0.4559 H       
  51 H51           -2.3594     3.9932     0.4655 H       
@<TRIPOS>BOND
   1    1    2 1
   2    1    3 2
   3    1    4 1
   4    2    5 1
   5    2   30 1
   6    2   31 1
   7    4   29 1
   8    5    6 1
   9    5   32 1
  10    6    7 1
  11    6   12 1
  12    6   33 1
  13    7   34 1
  14    7   35 1
  15    7   36 1
  16    8    9 1
  17    8   12 1
  18    9   10 2
  19   10   11 1
  20   10   17 1
  21   11   12 2
  22   13   14 1
  23   13   17 1
  24   14   15 2
  25   14   18 1
  26   15   16 1
  27   16   17 2
  28   16   37 1
  29   18   19 1
  30   19   20 ar
  31   19   24 ar
  32   20   21 ar
  33   20   38 1
  34   21   22 ar
  35   21   39 1
  36   22   23 ar
  37   22   25 1
  38   23   24 ar
  39   23   40 1
  40   24   41 1
  41   25   26 1
  42   26   27 1
  43   26   28 1
  44   26   42 1
  45   27   43 1
  46   27   44 1
  47   27   45 1
  48   28   46 1
  49   28   47 1
  50   28   48 1
  51   29   49 1
  52   29   50 1
  53   29   51 1

#	End of record

