#	Name: ASD05430434
#	Creating user name:	WinNT
#	Creation time:	15. 06. 2019 21:00

#	Modifying user name:	WinNT
#	Modification time:	15. 06. 2019 21:00

#	Program:	/corina/corina34_cracker 3.40 0067  02.08.2006

@<TRIPOS>MOLECULE
ASD05430434
  59   63    0    0    0
SMALL
NO_CHARGES


@<TRIPOS>ATOM
   1 C1            -0.0182     1.3897    -0.0688 C.ar    
   2 C2             0.0014    -0.0045    -0.0364 C.ar    
   3 C3            -1.1894    -0.7183     0.0110 C.ar    
   4 C4            -2.3954    -0.0525     0.0257 C.ar    
   5 C5            -2.4228     1.3457    -0.0067 C.ar    
   6 C6            -1.2239     2.0644    -0.0481 C.ar    
   7 C7            -4.8635     1.3652     0.0535 C.2     
   8 C8            -3.7101     2.0588     0.0085 C.2     
   9 O9             1.1492     2.0851    -0.1151 O.3     
  10 C10            1.6139    -1.6823     0.8064 C.2     
  11 N11            1.2249    -0.6867    -0.0521 N.pl3   
  12 C12            2.8541    -2.0541     0.4360 C.2     
  13 N13            3.2172    -1.3094    -0.6188 N.2     
  14 C14            2.2500    -0.4866    -0.9208 C.2     
  15 C15            3.6896    -3.1223     1.0932 C.3     
  16 C16           -7.2746     0.0761    -0.4628 C.2     
  17 N17           -7.3288     1.3462    -0.0306 N.am    
  18 C18           -8.5788     2.0187     0.3099 C.3     
  19 C19           -9.8116     1.2440    -0.1185 C.3     
  20 C20           -9.4824     0.2996    -1.2769 C.3     
  21 O21           -8.3932    -0.5699    -0.8457 O.3     
  22 C22           -8.6276     2.1991     1.8053 C.ar    
  23 C23           -7.9963     1.2882     2.6318 C.ar    
  24 C24           -9.2987     3.2783     2.3493 C.ar    
  25 C25           -9.3433     3.4452     3.7204 C.ar    
  26 C26           -8.7159     2.5307     4.5494 C.ar    
  27 C27           -8.0400     1.4528     4.0032 C.ar    
  28 F28           -8.7589     2.6929     5.8900 F       
  29 O29           -6.2038    -0.4955    -0.5141 O.2     
  30 C30            1.0544     3.5106    -0.1464 C.3     
  31 C31           -8.5613     3.4117    -0.3291 C.3     
  32 C32           -7.3605     4.1810     0.2282 C.3     
  33 N33           -6.1527     3.3669     0.1741 N.2     
  34 C34           -6.1470     2.0761     0.0685 C.2     
  35 H35           -1.1697    -1.7978     0.0360 H       
  36 H36           -3.3196    -0.6101     0.0618 H       
  37 H37           -1.2406     3.1440    -0.0728 H       
  38 H38           -4.8438     0.2857     0.0785 H       
  39 H39           -3.7298     3.1383    -0.0165 H       
  40 H40            1.0382    -2.0875     1.6254 H       
  41 H41            2.2625     0.2327    -1.7262 H       
  42 H42            3.4910    -4.0828     0.6176 H       
  43 H43            4.7457    -2.8751     0.9855 H       
  44 H44            3.4365    -3.1817     2.1517 H       
  45 H45          -10.1808     0.6616     0.7256 H       
  46 H46          -10.5839     1.9450    -0.4352 H       
  47 H47          -10.3580    -0.3004    -1.5246 H       
  48 H48           -9.1713     0.8772    -2.1474 H       
  49 H49           -7.4691     0.4475     2.2055 H       
  50 H50           -9.7880     3.9915     1.7025 H       
  51 H51           -9.8671     4.2888     4.1452 H       
  52 H52           -7.5505     0.7387     4.6489 H       
  53 H53            2.0553     3.9406    -0.1822 H       
  54 H54            0.4950     3.8182    -1.0298 H       
  55 H55            0.5405     3.8602     0.7490 H       
  56 H56           -8.4679     3.3184    -1.4111 H       
  57 H57           -9.4824     3.9402    -0.0835 H       
  58 H58           -7.2097     5.0858    -0.3608 H       
  59 H59           -7.5607     4.4572     1.2634 H       
@<TRIPOS>BOND
   1    1    2 ar
   2    1    9 1
   3    1    6 ar
   4    2    3 ar
   5    2   11 1
   6    3    4 ar
   7    3   35 1
   8    4    5 ar
   9    4   36 1
  10    5    6 ar
  11    5    8 1
  12    6   37 1
  13    7    8 2
  14    7   34 1
  15    7   38 1
  16    8   39 1
  17    9   30 1
  18   10   11 1
  19   10   12 2
  20   10   40 1
  21   11   14 1
  22   12   13 1
  23   12   15 1
  24   13   14 2
  25   14   41 1
  26   15   42 1
  27   15   43 1
  28   15   44 1
  29   16   17 am
  30   16   21 1
  31   16   29 2
  32   17   18 1
  33   17   34 1
  34   18   19 1
  35   18   22 1
  36   18   31 1
  37   19   20 1
  38   19   45 1
  39   19   46 1
  40   20   21 1
  41   20   47 1
  42   20   48 1
  43   22   23 ar
  44   22   24 ar
  45   23   27 ar
  46   23   49 1
  47   24   25 ar
  48   24   50 1
  49   25   26 ar
  50   25   51 1
  51   26   27 ar
  52   26   28 1
  53   27   52 1
  54   30   53 1
  55   30   54 1
  56   30   55 1
  57   31   32 1
  58   31   56 1
  59   31   57 1
  60   32   33 1
  61   32   58 1
  62   32   59 1
  63   33   34 2

#	End of record

