#	Name: ASD01810684
#	Creating user name:	WinNT
#	Creation time:	15. 06. 2019 19:25

#	Modifying user name:	WinNT
#	Modification time:	15. 06. 2019 19:25

#	Program:	/corina/corina34_cracker 3.40 0067  02.08.2006

@<TRIPOS>MOLECULE
ASD01810684
  71   76    0    0    0
SMALL
NO_CHARGES


@<TRIPOS>ATOM
   1 C1            -0.1775     1.9878     0.5178 C.ar    
   2 C2             0.0705     0.6139     0.5321 C.ar    
   3 C3            -0.9729    -0.2807     0.3962 C.ar    
   4 C4            -2.2669     0.1762     0.2460 C.ar    
   5 C5            -2.5288     1.5481     0.2304 C.ar    
   6 C6            -1.4813     2.4557     0.3718 C.ar    
   7 C7            -3.9153     2.0360     0.0688 C.2     
   8 N8            -4.4472     2.8700     0.9843 N.am    
   9 O9            -4.5753     1.6850    -0.8896 O.2     
  10 C10           -5.8495     3.2964     0.8831 C.3     
  11 C11           -3.6374     3.3650     2.1059 C.3     
  12 C12           -4.3713     3.0609     3.4158 C.3     
  13 C13           -5.7833     3.6477     3.3529 C.3     
  14 C14           -6.5540     2.9933     2.2093 C.3     
  15 C15           -6.4966     3.3801     4.6531 C.ar    
  16 C16           -6.9528     4.4384     5.4188 C.ar    
  17 C17           -7.6069     4.2005     6.6098 C.ar    
  18 C18           -7.8083     2.8882     7.0421 C.ar    
  19 C19           -7.3453     1.8249     6.2643 C.ar    
  20 C20           -6.6974     2.0770     5.0728 C.ar    
  21 C21            0.9415     2.9445     0.6634 C.2     
  22 N22            2.1854     2.6172     0.9145 N.2     
  23 C23            2.9464     3.7364     0.9827 C.ar    
  24 C24            2.0964     4.8308     0.7548 C.ar    
  25 N25            0.8345     4.3035     0.5505 N.pl3   
  26 C26            4.3084     3.9591     1.2196 C.ar    
  27 C27            4.8024     5.2432     1.2274 C.ar    
  28 C28            3.9627     6.3242     1.0027 C.ar    
  29 C29            2.6125     6.1252     0.7660 C.ar    
  30 C30            1.4798     0.1060     0.6956 C.3     
  31 C31           -3.3991    -0.8073     0.0979 C.3     
  32 C32           -8.4861     2.6338     8.2776 C.1     
  33 N33           -9.0238     2.4320     9.2577 N.1     
  34 N34            1.7707     7.2187     0.5402 N.3     
  35 C35            1.7716     8.1339     1.6962 C.3     
  36 C36            2.1922     9.5251     1.1776 C.3     
  37 C37            1.8555     9.4508    -0.3350 C.3     
  38 C38            2.1932     7.9740    -0.6585 C.3     
  39 H39           -0.7756    -1.3425     0.4073 H       
  40 H40           -1.6784     3.5175     0.3608 H       
  41 H41           -5.8924     4.3670     0.6830 H       
  42 H42           -6.3397     2.7518     0.0761 H       
  43 H43           -2.6685     2.8657     2.1055 H       
  44 H44           -3.4962     4.4413     2.0075 H       
  45 H45           -4.4317     1.9818     3.5570 H       
  46 H46           -3.8285     3.5075     4.2490 H       
  47 H47           -5.7225     4.7233     3.1870 H       
  48 H48           -7.5675     3.3932     2.1778 H       
  49 H49           -6.5925     1.9154     2.3664 H       
  50 H50           -6.7961     5.4529     5.0835 H       
  51 H51           -7.9622     5.0275     7.2068 H       
  52 H52           -7.4974     0.8074     6.5930 H       
  53 H53           -6.3388     1.2556     4.4703 H       
  54 H54            0.0242     4.8040     0.3667 H       
  55 H55            4.9702     3.1241     1.3963 H       
  56 H56            5.8534     5.4111     1.4105 H       
  57 H57            4.3641     7.3268     1.0121 H       
  58 H58            1.7334     0.0727     1.7552 H       
  59 H59            1.5566    -0.8954     0.2721 H       
  60 H60            2.1689     0.7733     0.1779 H       
  61 H61           -3.7381    -1.1223     1.0848 H       
  62 H62           -4.2236    -0.3345    -0.4357 H       
  63 H63           -3.0545    -1.6764    -0.4625 H       
  64 H64            0.7724     8.1859     2.1288 H       
  65 H65            2.4841     7.7859     2.4441 H       
  66 H66            1.6117    10.3093     1.6636 H       
  67 H67            3.2599     9.6856     1.3273 H       
  68 H68            0.7997     9.6573    -0.5106 H       
  69 H69            2.4854    10.1302    -0.9091 H       
  70 H70            3.2644     7.8569    -0.8227 H       
  71 H71            1.6356     7.6401    -1.5335 H       
@<TRIPOS>BOND
   1    1    2 ar
   2    1   21 1
   3    1    6 ar
   4    2    3 ar
   5    2   30 1
   6    3    4 ar
   7    3   39 1
   8    4    5 ar
   9    4   31 1
  10    5    6 ar
  11    5    7 1
  12    6   40 1
  13    7    8 am
  14    7    9 2
  15    8   10 1
  16    8   11 1
  17   10   14 1
  18   10   41 1
  19   10   42 1
  20   11   12 1
  21   11   43 1
  22   11   44 1
  23   12   13 1
  24   12   45 1
  25   12   46 1
  26   13   14 1
  27   13   15 1
  28   13   47 1
  29   14   48 1
  30   14   49 1
  31   15   16 ar
  32   15   20 ar
  33   16   17 ar
  34   16   50 1
  35   17   18 ar
  36   17   51 1
  37   18   19 ar
  38   18   32 1
  39   19   20 ar
  40   19   52 1
  41   20   53 1
  42   21   22 2
  43   21   25 1
  44   22   23 1
  45   23   24 ar
  46   23   26 ar
  47   24   25 1
  48   24   29 ar
  49   25   54 1
  50   26   27 ar
  51   26   55 1
  52   27   28 ar
  53   27   56 1
  54   28   29 ar
  55   28   57 1
  56   29   34 1
  57   30   58 1
  58   30   59 1
  59   30   60 1
  60   31   61 1
  61   31   62 1
  62   31   63 1
  63   32   33 3
  64   34   35 1
  65   34   38 1
  66   35   36 1
  67   35   64 1
  68   35   65 1
  69   36   37 1
  70   36   66 1
  71   36   67 1
  72   37   38 1
  73   37   68 1
  74   37   69 1
  75   38   70 1
  76   38   71 1

#	End of record

