#	Name: ASD04882042
#	Creating user name:	WinNT
#	Creation time:	15. 06. 2019 20:53

#	Modifying user name:	WinNT
#	Modification time:	15. 06. 2019 20:53

#	Program:	/corina/corina34_cracker 3.40 0067  02.08.2006

@<TRIPOS>MOLECULE
ASD04882042
  76   80    0    0    0
SMALL
NO_CHARGES


@<TRIPOS>ATOM
   1 C1             1.5168     1.4359     1.7942 C.ar    
   2 C2             1.4792     0.0557     1.8133 C.ar    
   3 C3             2.6602    -0.6685     1.9180 C.ar    
   4 C4             3.8752    -0.0009     2.0030 C.ar    
   5 C5             3.9057     1.3799     1.9833 C.ar    
   6 C6             2.7284     2.0974     1.8791 C.ar    
   7 C7             5.1588    -0.7822     2.1172 C.3     
   8 N8             2.6257    -2.0646     1.9381 N.3     
   9 C9             3.2413    -2.6241     0.7266 C.3     
  10 C10            3.2553    -4.1515     0.8235 C.3     
  11 N11            1.8796    -4.6420     0.9865 N.3     
  12 C12            1.2641    -4.0825     2.1980 C.3     
  13 C13            1.2501    -2.5552     2.1010 C.3     
  14 C14            1.8453    -6.0339     1.0065 C.ar    
  15 C15            2.1829    -6.7569    -0.1409 C.ar    
  16 C16            2.1491    -8.1385    -0.1206 C.ar    
  17 C17            1.7772    -8.8082     1.0484 C.ar    
  18 C18            1.4407    -8.0790     2.1924 C.ar    
  19 C19            1.4808    -6.7026     2.1696 C.ar    
  20 C20            1.7392   -10.2828     1.0747 C.2     
  21 N21            1.3804   -10.9277     2.2024 N.am    
  22 O22            2.0317   -10.9163     0.0788 O.2     
  23 C23            1.3427   -12.3920     2.2285 C.3     
  24 C24            0.9076   -12.8663     3.6165 C.3     
  25 C25            0.8682   -14.3955     3.6437 C.3     
  26 N26            0.4516   -14.8497     4.9728 N.am    
  27 C27           -0.9422   -15.0830     5.3689 C.3     
  28 C28           -0.9320   -15.1143     6.9134 C.3     
  29 C29            0.5234   -15.5441     7.2104 C.3     
  30 C30            1.2971   -15.1118     5.9843 C.2     
  31 O31            2.5042   -15.0096     5.9250 O.2     
  32 N32            2.5548    -6.0818    -1.3109 N.am    
  33 C33            3.3600    -6.6832    -2.2089 C.2     
  34 O34            3.6999    -7.8385    -2.0427 O.2     
  35 C35            3.8297    -5.9380    -3.3959 C.ar    
  36 C36            3.4468    -4.6116    -3.5982 C.ar    
  37 C37            4.6713    -6.5495    -4.3333 C.ar    
  38 C38            5.0831    -5.8082    -5.4266 C.ar    
  39 C39            4.6544    -4.4993    -5.5575 C.ar    
  40 N40            3.8653    -3.9476    -4.6557 N.ar    
  41 H41            0.5994     1.9993     1.7083 H       
  42 H42            0.5327    -0.4603     1.7474 H       
  43 H43            4.8501     1.8995     2.0494 H       
  44 H44            2.7551     3.1770     1.8636 H       
  45 H45            5.5086    -1.0538     1.1212 H       
  46 H46            5.9131    -0.1714     2.6132 H       
  47 H47            4.9831    -1.6866     2.6997 H       
  48 H48            2.6652    -2.3205    -0.1475 H       
  49 H49            4.2632    -2.2562     0.6348 H       
  50 H50            3.6851    -4.5697    -0.0867 H       
  51 H51            3.8540    -4.4559     1.6820 H       
  52 H52            0.2422    -4.4505     2.2898 H       
  53 H53            1.8402    -4.3862     3.0720 H       
  54 H54            0.8203    -2.1370     3.0113 H       
  55 H55            0.6514    -2.2507     1.2426 H       
  56 H56            2.4093    -8.6993    -1.0062 H       
  57 H57            1.1532    -8.5955     3.0962 H       
  58 H58            1.2204    -6.1413     3.0547 H       
  59 H59            1.1471   -10.4223     2.9968 H       
  60 H60            0.6330   -12.7505     1.4830 H       
  61 H61            2.3344   -12.7850     2.0046 H       
  62 H62            1.6173   -12.5078     4.3620 H       
  63 H63           -0.0841   -12.4733     3.8404 H       
  64 H64            0.1585   -14.7541     2.8982 H       
  65 H65            1.8599   -14.7886     3.4198 H       
  66 H66           -1.5765   -14.2715     5.0123 H       
  67 H67           -1.2918   -16.0371     4.9746 H       
  68 H68           -1.1386   -14.1263     7.3249 H       
  69 H69           -1.6412   -15.8496     7.2934 H       
  70 H70            0.8972   -15.0363     8.0995 H       
  71 H71            0.5842   -16.6254     7.3335 H       
  72 H72            2.2327    -5.1816    -1.4746 H       
  73 H73            2.8014    -4.1254    -2.8816 H       
  74 H74            4.9910    -7.5732    -4.2060 H       
  75 H75            5.7326    -6.2466    -6.1698 H       
  76 H76            4.9743    -3.9184    -6.4100 H       
@<TRIPOS>BOND
   1    1    2 ar
   2    1    6 ar
   3    1   41 1
   4    2    3 ar
   5    2   42 1
   6    3    4 ar
   7    3    8 1
   8    4    5 ar
   9    4    7 1
  10    5    6 ar
  11    5   43 1
  12    6   44 1
  13    7   45 1
  14    7   46 1
  15    7   47 1
  16    8    9 1
  17    8   13 1
  18    9   10 1
  19    9   48 1
  20    9   49 1
  21   10   11 1
  22   10   50 1
  23   10   51 1
  24   11   12 1
  25   11   14 1
  26   12   13 1
  27   12   52 1
  28   12   53 1
  29   13   54 1
  30   13   55 1
  31   14   15 ar
  32   14   19 ar
  33   15   16 ar
  34   15   32 1
  35   16   17 ar
  36   16   56 1
  37   17   18 ar
  38   17   20 1
  39   18   19 ar
  40   18   57 1
  41   19   58 1
  42   20   21 am
  43   20   22 2
  44   21   23 1
  45   21   59 1
  46   23   24 1
  47   23   60 1
  48   23   61 1
  49   24   25 1
  50   24   62 1
  51   24   63 1
  52   25   26 1
  53   25   64 1
  54   25   65 1
  55   26   27 1
  56   26   30 am
  57   27   28 1
  58   27   66 1
  59   27   67 1
  60   28   29 1
  61   28   68 1
  62   28   69 1
  63   29   30 1
  64   29   70 1
  65   29   71 1
  66   30   31 2
  67   32   33 am
  68   32   72 1
  69   33   34 2
  70   33   35 1
  71   35   36 ar
  72   35   37 ar
  73   36   40 ar
  74   36   73 1
  75   37   38 ar
  76   37   74 1
  77   38   39 ar
  78   38   75 1
  79   39   40 ar
  80   39   76 1

#	End of record

