#	Name: ASD00843569
#	Creating user name:	WinNT
#	Creation time:	15. 06. 2019 18:47

#	Modifying user name:	WinNT
#	Modification time:	15. 06. 2019 18:47

#	Program:	/corina/corina34_cracker 3.40 0067  02.08.2006

@<TRIPOS>MOLECULE
ASD00843569
  95  100    0    0    0
SMALL
NO_CHARGES


@<TRIPOS>ATOM
   1 F1             5.5635    -2.4347    -2.0440 F       
   2 N2             0.7675     1.0304    -0.2480 N.ar    
   3 C3             0.9572    -0.2494    -0.5218 C.ar    
   4 C4             0.8517    -1.2099     0.4762 C.ar    
   5 C5             0.5447    -0.8107     1.7651 C.ar    
   6 C6             0.3531     0.5421     2.0113 C.ar    
   7 C7             0.4736     1.4416     0.9710 C.ar    
   8 C8             1.0682    -2.6673     0.1594 C.3     
   9 C9             0.7614    -3.5240     1.3690 C.2     
  10 C10            0.2035    -3.0899    -1.0299 C.3     
  11 C11           -1.2383    -2.7550    -0.7469 C.2     
  12 N12           -2.2006    -3.1361    -1.6102 N.am    
  13 O13           -1.5326    -2.1426     0.2576 O.2     
  14 C14           -3.5953    -2.7212    -1.4072 C.3     
  15 C15           -4.4862    -3.9674    -1.4129 C.3     
  16 C16           -4.2462    -4.7553    -2.7028 C.3     
  17 C17           -2.7849    -5.2060    -2.7628 C.3     
  18 C18           -1.8738    -3.9691    -2.7755 C.3     
  19 C19           -5.1595    -5.9826    -2.7278 C.3     
  20 C20           -6.6221    -5.5332    -2.6695 C.3     
  21 C21           -7.5317    -6.7609    -2.7563 C.3     
  22 N22           -7.2707    -7.4773    -4.0113 N.3     
  23 C23           -5.8849    -7.9596    -4.0691 C.3     
  24 C24           -4.9261    -6.7677    -4.0215 C.3     
  25 C25           -8.2208    -8.5827    -4.1940 C.3     
  26 O26           -0.3074    -3.6136     1.9354 O.2     
  27 N27            1.8943    -4.1670     1.6975 N.am    
  28 C28            2.5292    -2.9366    -0.1221 C.ar    
  29 C29            2.9516    -3.8452     0.8429 C.ar    
  30 C30            3.3961    -2.4655    -1.0833 C.ar    
  31 C31            4.7117    -2.8948    -1.1016 C.ar    
  32 C32            5.1542    -3.8081    -0.1393 C.ar    
  33 C33            4.2712    -4.2814     0.8309 C.ar    
  34 C34            1.6341    -6.8263     2.3569 C.ar    
  35 C35            0.3561    -7.1021     1.8935 C.ar    
  36 C36            2.6037    -7.8103     2.3329 C.ar    
  37 C37            2.3012    -9.0687     1.8471 C.ar    
  38 C38            1.0278    -9.3462     1.3846 C.ar    
  39 C39            0.0549    -8.3661     1.4069 C.ar    
  40 H40            0.7940   -10.3301     1.0056 H       
  41 O41           -0.5995    -6.1361     1.9165 O.3     
  42 C42           -1.8929    -6.4912     1.4236 C.3     
  43 C43           -7.9988    -9.2249    -5.5648 C.3     
  44 C44           -8.0025    -9.6290    -3.0992 C.3     
  45 S45            2.0226    -5.2203     2.9688 S.o2    
  46 O46            3.3970    -5.2496     3.3285 O.2     
  47 O47            0.9879    -4.8770     3.8803 O.2     
  48 O48            1.2573    -0.6280    -1.7897 O.3     
  49 C49            1.2997     0.4004    -2.7810 C.3     
  50 C50            1.7528    -0.1957    -4.1152 C.3     
  51 F51            2.9877    -0.8311    -3.9467 F       
  52 F52            0.8057    -1.1264    -4.5557 F       
  53 C53            6.5137    -4.2578    -0.1506 C.1     
  54 N54            7.5922    -4.6145    -0.1595 N.1     
  55 H55            0.4558    -1.5350     2.5613 H       
  56 H56            0.1119     0.8871     3.0059 H       
  57 H57            0.3259     2.4951     1.1573 H       
  58 H58            0.5311    -2.5594    -1.9240 H       
  59 H59            0.3028    -4.1639    -1.1879 H       
  60 H60           -3.6887    -2.2097    -0.4493 H       
  61 H61           -3.8983    -2.0518    -2.2123 H       
  62 H62           -4.2426    -4.5927    -0.5540 H       
  63 H63           -5.5326    -3.6669    -1.3596 H       
  64 H64           -4.4663    -4.1215    -3.5618 H       
  65 H65           -2.5573    -5.8196    -1.8911 H       
  66 H66           -2.6203    -5.7869    -3.6703 H       
  67 H67           -2.0377    -3.4039    -3.6930 H       
  68 H68           -0.8314    -4.2825    -2.7183 H       
  69 H69           -4.9392    -6.6181    -1.8702 H       
  70 H70           -6.8050    -5.0104    -1.7308 H       
  71 H71           -6.8313    -4.8656    -3.5053 H       
  72 H72           -7.3316    -7.4215    -1.9127 H       
  73 H73           -8.5740    -6.4433    -2.7295 H       
  74 H74           -5.6925    -8.6146    -3.2194 H       
  75 H75           -5.7311    -8.5126    -4.9958 H       
  76 H76           -5.1086    -6.1195    -4.8786 H       
  77 H77           -3.8974    -7.1269    -4.0487 H       
  78 H78           -9.2396    -8.1999    -4.1328 H       
  79 H79            3.0486    -1.7603    -1.8238 H       
  80 H80            4.6133    -4.9867     1.5738 H       
  81 H81            3.5989    -7.5960     2.6935 H       
  82 H82            3.0607    -9.8363     1.8285 H       
  83 H83           -0.9396    -8.5836     1.0462 H       
  84 H84           -2.5589    -5.6315     1.4984 H       
  85 H85           -1.8126    -6.7989     0.3810 H       
  86 H86           -2.2940    -7.3140     2.0154 H       
  87 H87           -8.7038   -10.0451    -5.7003 H       
  88 H88           -8.1543    -8.4795    -6.3447 H       
  89 H89           -6.9800    -9.6076    -5.6260 H       
  90 H90           -8.1607    -9.1715    -2.1226 H       
  91 H91           -8.7075   -10.4492    -3.2347 H       
  92 H92           -6.9837   -10.0117    -3.1604 H       
  93 H93            0.3070     0.8355    -2.8958 H       
  94 H94            2.0021     1.1745    -2.4716 H       
  95 H95            1.8513     0.5998    -4.8538 H       
@<TRIPOS>BOND
   1    1   31 1
   2    2    3 ar
   3    2    7 ar
   4    3    4 ar
   5    3   48 1
   6    4    5 ar
   7    4    8 1
   8    5    6 ar
   9    5   55 1
  10    6    7 ar
  11    6   56 1
  12    7   57 1
  13    8    9 1
  14    8   10 1
  15    8   28 1
  16    9   26 2
  17    9   27 am
  18   10   11 1
  19   10   58 1
  20   10   59 1
  21   11   12 am
  22   11   13 2
  23   12   14 1
  24   12   18 1
  25   14   15 1
  26   14   60 1
  27   14   61 1
  28   15   16 1
  29   15   62 1
  30   15   63 1
  31   16   17 1
  32   16   19 1
  33   16   64 1
  34   17   18 1
  35   17   65 1
  36   17   66 1
  37   18   67 1
  38   18   68 1
  39   19   20 1
  40   19   24 1
  41   19   69 1
  42   20   21 1
  43   20   70 1
  44   20   71 1
  45   21   22 1
  46   21   72 1
  47   21   73 1
  48   22   23 1
  49   22   25 1
  50   23   24 1
  51   23   74 1
  52   23   75 1
  53   24   76 1
  54   24   77 1
  55   25   43 1
  56   25   44 1
  57   25   78 1
  58   27   45 am
  59   27   29 1
  60   28   29 ar
  61   28   30 ar
  62   29   33 ar
  63   30   31 ar
  64   30   79 1
  65   31   32 ar
  66   32   33 ar
  67   32   53 1
  68   33   80 1
  69   34   35 ar
  70   34   36 ar
  71   34   45 1
  72   35   41 1
  73   35   39 ar
  74   36   37 ar
  75   36   81 1
  76   37   38 ar
  77   37   82 1
  78   38   39 ar
  79   38   40 1
  80   39   83 1
  81   41   42 1
  82   42   84 1
  83   42   85 1
  84   42   86 1
  85   43   87 1
  86   43   88 1
  87   43   89 1
  88   44   90 1
  89   44   91 1
  90   44   92 1
  91   45   46 2
  92   45   47 2
  93   48   49 1
  94   49   50 1
  95   49   93 1
  96   49   94 1
  97   50   51 1
  98   50   52 1
  99   50   95 1
 100   53   54 3

#	End of record

