#	Name: ASD09740234
#	Creating user name:	WinNT
#	Creation time:	15. 06. 2019 21:23

#	Modifying user name:	WinNT
#	Modification time:	15. 06. 2019 21:23

#	Program:	/corina/corina34_cracker 3.40 0067  02.08.2006

@<TRIPOS>MOLECULE
ASD09740234
  44   46    0    0    0
SMALL
NO_CHARGES


@<TRIPOS>ATOM
   1 C1            -0.0161     1.3381     0.0094 C.2     
   2 O2             0.0021    -0.0041     0.0020 O.3     
   3 N3            -1.1324    -0.4326     0.0105 N.2     
   4 C4            -1.9915     0.5543     0.0240 C.2     
   5 N5            -1.2848     1.7037     0.0293 N.2     
   6 C6            -3.4707     0.4318     0.0375 C.ar    
   7 C7            -4.0679    -0.8272     0.0370 C.ar    
   8 C8            -4.2664     1.5751     0.0566 C.ar    
   9 C9            -5.6414     1.4560     0.0695 C.ar    
  10 C10           -6.2298     0.2034     0.0636 C.ar    
  11 C11           -5.4433    -0.9358     0.0500 C.ar    
  12 C12            1.1579     2.2341     0.0030 C.ar    
  13 C13            0.9810     3.6190     0.0126 C.ar    
  14 C14           -3.2129    -2.0681     0.0217 C.3     
  15 Br15          -8.1143     0.0473     0.0815 Br      
  16 C16            2.0781     4.4543     0.0062 C.ar    
  17 C17            3.3592     3.9219    -0.0100 C.ar    
  18 C18            3.5428     2.5401    -0.0197 C.ar    
  19 C19            2.4478     1.6977    -0.0069 C.ar    
  20 O20            4.4370     4.7490    -0.0168 O.3     
  21 C21            5.5019     6.9184    -0.0163 C.3     
  22 C22            4.1766     6.1541    -0.0066 C.3     
  23 O23            4.7998     2.0213    -0.0364 O.3     
  24 C24            6.3921     0.2034    -0.0640 C.3     
  25 C25            4.9136     0.5968    -0.0455 C.3     
  26 H26           -3.8081     2.5530     0.0615 H       
  27 H27           -6.2591     2.3417     0.0846 H       
  28 H28           -5.9071    -1.9112     0.0455 H       
  29 H29           -0.0151     4.0360     0.0248 H       
  30 H30           -2.9963    -2.3727     1.0456 H       
  31 H31           -3.7449    -2.8696    -0.4909 H       
  32 H32           -2.2792    -1.8596    -0.5006 H       
  33 H33            1.9399     5.5254     0.0133 H       
  34 H34            2.5886     0.6270    -0.0141 H       
  35 H35            6.0826     6.6501     0.8663 H       
  36 H36            6.0641     6.6596    -0.9135 H       
  37 H37            5.3033     7.9902    -0.0086 H       
  38 H38            3.5960     6.4223    -0.8892 H       
  39 H39            3.6144     6.4129     0.8906 H       
  40 H40            6.4789    -0.8831    -0.0710 H       
  41 H41            6.8655     0.6115    -0.9570 H       
  42 H42            6.8851     0.6016     0.8229 H       
  43 H43            4.4402     0.1888     0.8475 H       
  44 H44            4.4206     0.1986    -0.9324 H       
@<TRIPOS>BOND
   1    1    2 1
   2    1   12 1
   3    1    5 2
   4    2    3 1
   5    3    4 2
   6    4    5 1
   7    4    6 1
   8    6    7 ar
   9    6    8 ar
  10    7   14 1
  11    7   11 ar
  12    8    9 ar
  13    8   26 1
  14    9   10 ar
  15    9   27 1
  16   10   11 ar
  17   10   15 1
  18   11   28 1
  19   12   13 ar
  20   12   19 ar
  21   13   16 ar
  22   13   29 1
  23   14   30 1
  24   14   31 1
  25   14   32 1
  26   16   17 ar
  27   16   33 1
  28   17   18 ar
  29   17   20 1
  30   18   19 ar
  31   18   23 1
  32   19   34 1
  33   20   22 1
  34   21   22 1
  35   21   35 1
  36   21   36 1
  37   21   37 1
  38   22   38 1
  39   22   39 1
  40   23   25 1
  41   24   25 1
  42   24   40 1
  43   24   41 1
  44   24   42 1
  45   25   43 1
  46   25   44 1

#	End of record

