#	Name: ASD07301210
#	Creating user name:	WinNT
#	Creation time:	15. 06. 2019 21:11

#	Modifying user name:	WinNT
#	Modification time:	15. 06. 2019 21:11

#	Program:	/corina/corina34_cracker 3.40 0067  02.08.2006

@<TRIPOS>MOLECULE
ASD07301210
  44   47    0    0    0
SMALL
NO_CHARGES


@<TRIPOS>ATOM
   1 C1            -0.0169     1.4675     0.0597 C.2     
   2 C2             0.0021    -0.0041     0.0008 C.2     
   3 C3             1.2688    -0.6320    -0.0645 C.2     
   4 C4             2.3698     0.1612    -0.0683 C.2     
   5 N5             2.2553     1.5071    -0.0109 N.pl3   
   6 N6             1.1289     2.1162     0.0488 N.2     
   7 O7            -1.0319    -0.6551     0.0085 O.2     
   8 C8             3.4250     2.2738    -0.0175 C.ar    
   9 C9             3.3499     3.6579    -0.1137 C.ar    
  10 C10            4.5066     4.4118    -0.1195 C.ar    
  11 C11            5.7392     3.7907    -0.0301 C.ar    
  12 C12            5.8177     2.4135     0.0658 C.ar    
  13 C13            4.6643     1.6537     0.0778 C.ar    
  14 C14            4.4260     5.9131    -0.2238 C.3     
  15 F15            4.3499     6.4662     1.0590 F       
  16 F16            5.5665     6.3972    -0.8735 F       
  17 F17            3.2869     6.2694    -0.9536 F       
  18 C18           -3.1310     3.2710    -0.4328 C.2     
  19 N19           -3.0958     3.2190     0.8695 N.2     
  20 C20           -1.9850     2.5700     1.2649 C.2     
  21 C21           -1.2943     2.2004     0.1235 C.2     
  22 N22           -2.0404     2.6558    -0.9398 N.pl3   
  23 C23           -1.5766     2.3013     2.6631 C.ar    
  24 C24           -1.8509     3.2332     3.6641 C.ar    
  25 C25           -1.4684     2.9769     4.9648 C.ar    
  26 C26           -0.8137     1.7988     5.2770 C.ar    
  27 C27           -0.5389     0.8706     4.2886 C.ar    
  28 C28           -0.9214     1.1128     2.9852 C.ar    
  29 C29           -1.7127     2.5013    -2.3593 C.3     
  30 H30            1.3563    -1.7075    -0.1096 H       
  31 H31            3.3505    -0.2886    -0.1175 H       
  32 H32            2.3877     4.1435    -0.1843 H       
  33 H33            6.6425     4.3827    -0.0355 H       
  34 H34            6.7818     1.9317     0.1350 H       
  35 H35            4.7261     0.5784     0.1569 H       
  36 H36           -3.9142     3.7314    -1.0167 H       
  37 H37           -2.3612     4.1535     3.4214 H       
  38 H38           -1.6801     3.6977     5.7407 H       
  39 H39           -0.5157     1.6030     6.2964 H       
  40 H40           -0.0276    -0.0473     4.5384 H       
  41 H41           -0.7103     0.3855     2.2152 H       
  42 H42           -1.1186     3.3533    -2.6898 H       
  43 H43           -1.1426     1.5834    -2.5027 H       
  44 H44           -2.6329     2.4523    -2.9414 H       
@<TRIPOS>BOND
   1    1    2 1
   2    1    6 2
   3    1   21 1
   4    2    3 1
   5    2    7 2
   6    3    4 2
   7    3   30 1
   8    4    5 1
   9    4   31 1
  10    5    6 1
  11    5    8 1
  12    8    9 ar
  13    8   13 ar
  14    9   10 ar
  15    9   32 1
  16   10   11 ar
  17   10   14 1
  18   11   12 ar
  19   11   33 1
  20   12   13 ar
  21   12   34 1
  22   13   35 1
  23   14   15 1
  24   14   16 1
  25   14   17 1
  26   18   19 2
  27   18   22 1
  28   18   36 1
  29   19   20 1
  30   20   21 2
  31   20   23 1
  32   21   22 1
  33   22   29 1
  34   23   24 ar
  35   23   28 ar
  36   24   25 ar
  37   24   37 1
  38   25   26 ar
  39   25   38 1
  40   26   27 ar
  41   26   39 1
  42   27   28 ar
  43   27   40 1
  44   28   41 1
  45   29   42 1
  46   29   43 1
  47   29   44 1

#	End of record

