#	Name: ASD01908150
#	Creating user name:	WinNT
#	Creation time:	15. 06. 2019 19:54

#	Modifying user name:	WinNT
#	Modification time:	15. 06. 2019 19:54

#	Program:	/corina/corina34_cracker 3.40 0067  02.08.2006

@<TRIPOS>MOLECULE
ASD01908150
  24   25    0    0    0
SMALL
NO_CHARGES


@<TRIPOS>ATOM
   1 C1            -0.0184     1.5028     0.0103 C.2     
   2 C2             0.0021    -0.0041     0.0020 C.3     
   3 N3             2.6927     3.9024    -0.0037 N.pl3   
   4 N4             3.3977     2.6940    -0.0170 N.2     
   5 C5             2.5471     1.7061    -0.0136 C.2     
   6 C6             1.2417     2.2533     0.0023 C.2     
   7 C7             1.3792     3.6310     0.0081 C.2     
   8 C8            -1.4117    -0.5257     0.0127 C.ar    
   9 C9            -2.0716    -0.7585    -1.1795 C.ar    
  10 C10           -3.3685    -1.2369    -1.1696 C.ar    
  11 C11           -4.0053    -1.4830     0.0323 C.ar    
  12 C12           -3.3451    -1.2510     1.2245 C.ar    
  13 C13           -2.0468    -0.7767     1.2146 C.ar    
  14 O14           -1.0771     2.0950     0.0185 O.2     
  15 H15            0.5123    -0.3556    -0.8948 H       
  16 H16            0.5293    -0.3651     0.8851 H       
  17 H17            3.0877     4.7883     0.0006 H       
  18 H18            2.7948     0.6549    -0.0215 H       
  19 H19            0.5768     4.3538     0.0201 H       
  20 H20           -1.5740    -0.5663    -2.1185 H       
  21 H21           -3.8843    -1.4181    -2.1011 H       
  22 H22           -5.0188    -1.8561     0.0400 H       
  23 H23           -3.8428    -1.4429     2.1636 H       
  24 H24           -1.5297    -0.5990     2.1460 H       
@<TRIPOS>BOND
   1    1    2 1
   2    1    6 1
   3    1   14 2
   4    2    8 1
   5    2   15 1
   6    2   16 1
   7    3    4 1
   8    3    7 1
   9    3   17 1
  10    4    5 2
  11    5    6 1
  12    5   18 1
  13    6    7 2
  14    7   19 1
  15    8    9 ar
  16    8   13 ar
  17    9   10 ar
  18    9   20 1
  19   10   11 ar
  20   10   21 1
  21   11   12 ar
  22   11   22 1
  23   12   13 ar
  24   12   23 1
  25   13   24 1

#	End of record

