#	Name: ASD03092771
#	Creating user name:	WinNT
#	Creation time:	15. 06. 2019 20:33

#	Modifying user name:	WinNT
#	Modification time:	15. 06. 2019 20:33

#	Program:	/corina/corina34_cracker 3.40 0067  02.08.2006

@<TRIPOS>MOLECULE
ASD03092771
  52   55    0    0    0
SMALL
NO_CHARGES


@<TRIPOS>ATOM
   1 C1            -1.5820    -1.0931     4.2690 C.3     
   2 O2            -1.2452    -2.0128     3.2284 O.3     
   3 C3            -2.1459    -2.1617     2.2205 C.ar    
   4 C4            -3.3247    -1.4346     2.2303 C.ar    
   5 C5            -4.2403    -1.5871     1.2052 C.ar    
   6 C6            -3.9825    -2.4652     0.1678 C.ar    
   7 Cl7           -5.1362    -2.6518    -1.1159 Cl      
   8 C8            -2.8071    -3.1946     0.1510 C.ar    
   9 C9            -1.8824    -3.0419     1.1731 C.ar    
  10 N10           -0.6885    -3.7751     1.1554 N.am    
  11 C11           -0.1837    -4.2128    -0.0151 C.2     
  12 O12           -0.7996    -4.0361    -1.0451 O.2     
  13 C13            1.1458    -4.9217    -0.0443 C.3     
  14 H14            1.9961    -4.3414     0.3138 H       
  15 C15            1.3951    -5.9104    -1.1863 C.3     
  16 H16            0.5974    -6.0479    -1.9163 H       
  17 C17            2.7974    -6.0071    -1.7296 C.ar    
  18 C18            3.8351    -5.3622    -1.0830 C.ar    
  19 C19            5.1215    -5.4509    -1.5814 C.ar    
  20 C20            5.3701    -6.1849    -2.7261 C.ar    
  21 C21            4.3325    -6.8306    -3.3721 C.ar    
  22 C22            3.0469    -6.7454    -2.8713 C.ar    
  23 S23            7.0096    -6.2971    -3.3619 S.o2    
  24 N24            7.7194    -7.6169    -2.6574 N.am    
  25 O25            6.8838    -6.5994    -4.7447 O.2     
  26 O26            7.7073    -5.1587    -2.8756 O.2     
  27 C27            1.1505    -6.4223     0.2311 C.3     
  28 C28            2.2861    -7.0706     1.0421 C.3     
  29 C29            1.5632    -7.7209     2.2490 C.3     
  30 C30            0.2505    -8.2502     1.6189 C.3     
  31 C31           -0.1429    -7.1647     0.5941 C.3     
  32 H32           -0.7803    -1.0700     5.0071 H       
  33 H33           -1.7146    -0.0977     3.8452 H       
  34 H34           -2.5082    -1.4102     4.7484 H       
  35 H35           -3.5290    -0.7485     3.0389 H       
  36 H36           -5.1590    -1.0194     1.2147 H       
  37 H37           -2.6081    -3.8798    -0.6597 H       
  38 H38           -0.2253    -3.9678     1.9856 H       
  39 H39            3.6409    -4.7887    -0.1887 H       
  40 H40            5.9321    -4.9465    -1.0766 H       
  41 H41            4.5268    -7.4038    -4.2666 H       
  42 H42            2.2368    -7.2530    -3.3740 H       
  43 H43            8.4009    -8.1144    -3.1359 H       
  44 H44            7.4537    -7.8926    -1.7661 H       
  45 H45            2.7950    -7.8294     0.4476 H       
  46 H46            2.9926    -6.3136     1.3827 H       
  47 H47            2.1540    -8.5413     2.6566 H       
  48 H48            1.3503    -6.9779     3.0176 H       
  49 H49            0.4248    -9.2024     1.1179 H       
  50 H50           -0.5228    -8.3545     2.3799 H       
  51 H51           -0.8591    -6.4732     1.0380 H       
  52 H52           -0.5708    -7.6273    -0.2952 H       
@<TRIPOS>BOND
   1    1    2 1
   2    1   32 1
   3    1   33 1
   4    1   34 1
   5    2    3 1
   6    3    9 ar
   7    3    4 ar
   8    4    5 ar
   9    4   35 1
  10    5    6 ar
  11    5   36 1
  12    6    7 1
  13    6    8 ar
  14    8    9 ar
  15    8   37 1
  16    9   10 1
  17   10   11 am
  18   10   38 1
  19   11   12 2
  20   11   13 1
  21   13   14 1
  22   13   27 1
  23   13   15 1
  24   15   16 1
  25   15   17 1
  26   15   27 1
  27   17   22 ar
  28   17   18 ar
  29   18   19 ar
  30   18   39 1
  31   19   20 ar
  32   19   40 1
  33   20   21 ar
  34   20   23 1
  35   21   22 ar
  36   21   41 1
  37   22   42 1
  38   23   24 am
  39   23   25 2
  40   23   26 2
  41   24   43 1
  42   24   44 1
  43   27   31 1
  44   27   28 1
  45   28   29 1
  46   28   45 1
  47   28   46 1
  48   29   30 1
  49   29   47 1
  50   29   48 1
  51   30   31 1
  52   30   49 1
  53   30   50 1
  54   31   51 1
  55   31   52 1

#	End of record

