#	Name: ASD02198391
#	Creating user name:	WinNT
#	Creation time:	15. 06. 2019 20:19

#	Modifying user name:	WinNT
#	Modification time:	15. 06. 2019 20:19

#	Program:	/corina/corina34_cracker 3.40 0067  02.08.2006

@<TRIPOS>MOLECULE
ASD02198391
  41   44    0    0    0
SMALL
NO_CHARGES


@<TRIPOS>ATOM
   1 C1            -0.2140     1.0708    -0.3401 C.2     
   2 C2            -0.1175    -0.2754    -0.3553 C.2     
   3 S3             1.3945     1.7718    -0.2169 S.3     
   4 C4             2.1237     0.1717    -0.1923 C.2     
   5 C5             1.1687    -0.7616    -0.2739 C.2     
   6 S6             3.8516    -0.1533    -0.0776 S.o2    
   7 N7             4.4421    -0.2173    -1.6234 N.am    
   8 C8             4.3258     0.8921    -2.4609 C.ar    
   9 C9             4.0865     0.7189    -3.8418 C.ar    
  10 C10            3.9722     1.8630    -4.6689 C.ar    
  11 C11            4.0982     3.1444    -4.1072 C.ar    
  12 C12            4.3294     3.2807    -2.7711 C.ar    
  13 C13            4.4378     2.1653    -1.9460 C.ar    
  14 N14            3.9681    -0.5009    -4.3728 N.ar    
  15 C15            3.7464    -0.6682    -5.6540 C.ar    
  16 C16            3.6238     0.4135    -6.5235 C.ar    
  17 C17            3.7336     1.6881    -6.0453 C.ar    
  18 O18            4.4359     0.9917     0.5281 O.2     
  19 O19            3.9788    -1.4645     0.4551 O.2     
  20 C20           -1.4729     1.8357    -0.4206 C.ar    
  21 C21           -1.4575     3.2363    -0.3961 C.ar    
  22 N22           -2.6436     1.2050    -0.5234 N.ar    
  23 C23           -3.7736     1.8909    -0.5957 C.ar    
  24 N24           -3.7870     3.2167    -0.5695 N.ar    
  25 C25           -2.6621     3.9092    -0.4741 C.ar    
  26 S26           -5.2993     1.0198    -0.7306 S.3     
  27 C27           -6.4528     2.4133    -0.7900 C.3     
  28 Br28           3.9478     4.6779    -5.2034 Br      
  29 H29           -0.9808    -0.9206    -0.4255 H       
  30 H30            1.3899    -1.8187    -0.2754 H       
  31 H31            4.8688    -1.0262    -1.9465 H       
  32 H32            4.4257     4.2687    -2.3457 H       
  33 H33            4.6209     2.2991    -0.8901 H       
  34 H34            3.6567    -1.6706    -6.0457 H       
  35 H35            3.4415     0.2443    -7.5745 H       
  36 H36            3.6410     2.5382    -6.7049 H       
  37 H37           -0.5262     3.7775    -0.3178 H       
  38 H38           -2.6862     4.9887    -0.4538 H       
  39 H39           -6.3582     3.0023     0.1223 H       
  40 H40           -6.2223     3.0393    -1.6521 H       
  41 H41           -7.4724     2.0376    -0.8759 H       
@<TRIPOS>BOND
   1    1    2 2
   2    1    3 1
   3    1   20 1
   4    2    5 1
   5    2   29 1
   6    3    4 1
   7    4    5 2
   8    4    6 1
   9    5   30 1
  10    6    7 am
  11    6   18 2
  12    6   19 2
  13    7    8 1
  14    7   31 1
  15    8    9 ar
  16    8   13 ar
  17    9   10 ar
  18    9   14 ar
  19   10   11 ar
  20   10   17 ar
  21   11   12 ar
  22   11   28 1
  23   12   13 ar
  24   12   32 1
  25   13   33 1
  26   14   15 ar
  27   15   16 ar
  28   15   34 1
  29   16   17 ar
  30   16   35 1
  31   17   36 1
  32   20   21 ar
  33   20   22 ar
  34   21   25 ar
  35   21   37 1
  36   22   23 ar
  37   23   24 ar
  38   23   26 1
  39   24   25 ar
  40   25   38 1
  41   26   27 1
  42   27   39 1
  43   27   40 1
  44   27   41 1

#	End of record

