#	Name: ASD03090189
#	Creating user name:	WinNT
#	Creation time:	15. 06. 2019 20:28

#	Modifying user name:	WinNT
#	Modification time:	15. 06. 2019 20:28

#	Program:	/corina/corina34_cracker 3.40 0067  02.08.2006

@<TRIPOS>MOLECULE
ASD03090189
  45   47    0    0    0
SMALL
NO_CHARGES


@<TRIPOS>ATOM
   1 N1             0.4461     1.5144     1.4666 N.ar    
   2 C2             0.4081     0.1962     1.4326 C.ar    
   3 C3             1.5349    -0.5374     1.1228 C.ar    
   4 C4             2.7278     0.1376     0.8424 C.ar    
   5 C5             2.7221     1.5358     0.8897 C.ar    
   6 C6             1.5496     2.1896     1.2089 C.ar    
   7 C7             3.9619    -0.6069     0.5056 C.2     
   8 N8             5.7413    -3.4565    -0.5279 N.pl3   
   9 C9             4.8156    -4.4449    -0.8728 C.ar    
  10 C10            3.5996    -4.0911    -1.4432 C.ar    
  11 C11            2.6871    -5.0706    -1.7833 C.ar    
  12 C12            2.9831    -6.4021    -1.5565 C.ar    
  13 C13            4.1931    -6.7579    -0.9887 C.ar    
  14 C14            5.1120    -5.7841    -0.6512 C.ar    
  15 N15            4.0263    -1.8631     0.1122 N.2     
  16 C16            5.2979    -2.2026    -0.1028 C.2     
  17 N17            6.0662    -1.1676     0.1500 N.2     
  18 N18            5.2210    -0.1167     0.5415 N.pl3   
  19 C19            5.6246     1.2390     0.9227 C.3     
  20 C20            5.7305     2.1109    -0.3301 C.3     
  21 O21            6.1242     3.4333     0.0417 O.3     
  22 S22            6.2614     4.3916    -1.1327 S.o2    
  23 C23            4.5527     4.7819    -1.6004 C.3     
  24 O24            6.9005     5.5341    -0.5800 O.2     
  25 O25            6.8910     3.6178    -2.1447 O.2     
  26 C26            4.5112    -8.2104    -0.7435 C.3     
  27 F27            3.4383    -9.0010    -1.1688 F       
  28 F28            5.6618    -8.5627    -1.4570 F       
  29 F29            4.7288    -8.4158     0.6232 F       
  30 H30           -0.5176    -0.3157     1.6506 H       
  31 H31            1.4967    -1.6164     1.0975 H       
  32 H32            3.6219     2.0950     0.6802 H       
  33 H33            1.5351     3.2688     1.2476 H       
  34 H34            6.6918    -3.6415    -0.5838 H       
  35 H35            3.3676    -3.0513    -1.6202 H       
  36 H36            1.7412    -4.7962    -2.2265 H       
  37 H37            2.2677    -7.1660    -1.8231 H       
  38 H38            6.0566    -6.0626    -0.2078 H       
  39 H39            4.8818     1.6628     1.5986 H       
  40 H40            6.5923     1.2028     1.4231 H       
  41 H41            6.4733     1.6871    -1.0059 H       
  42 H42            4.7628     2.1470    -0.8304 H       
  43 H43            4.0414     5.2439    -0.7558 H       
  44 H44            4.5556     5.4713    -2.4447 H       
  45 H45            4.0346     3.8652    -1.8816 H       
@<TRIPOS>BOND
   1    1    2 ar
   2    1    6 ar
   3    2    3 ar
   4    2   30 1
   5    3    4 ar
   6    3   31 1
   7    4    5 ar
   8    4    7 1
   9    5    6 ar
  10    5   32 1
  11    6   33 1
  12    7   15 2
  13    7   18 1
  14    8    9 1
  15    8   16 1
  16    8   34 1
  17    9   10 ar
  18    9   14 ar
  19   10   11 ar
  20   10   35 1
  21   11   12 ar
  22   11   36 1
  23   12   13 ar
  24   12   37 1
  25   13   14 ar
  26   13   26 1
  27   14   38 1
  28   15   16 1
  29   16   17 2
  30   17   18 1
  31   18   19 1
  32   19   20 1
  33   19   39 1
  34   19   40 1
  35   20   21 1
  36   20   41 1
  37   20   42 1
  38   21   22 1
  39   22   23 1
  40   22   24 2
  41   22   25 2
  42   23   43 1
  43   23   44 1
  44   23   45 1
  45   26   27 1
  46   26   28 1
  47   26   29 1

#	End of record

