#	Name: ASD07300221
#	Creating user name:	WinNT
#	Creation time:	15. 06. 2019 21:09

#	Modifying user name:	WinNT
#	Modification time:	15. 06. 2019 21:09

#	Program:	/corina/corina34_cracker 3.40 0067  02.08.2006

@<TRIPOS>MOLECULE
ASD07300221
  48   52    0    0    0
SMALL
NO_CHARGES


@<TRIPOS>ATOM
   1 C1            -0.8591     0.9898    -0.1283 C.ar    
   2 C2            -1.0219    -0.3810    -0.3513 C.ar    
   3 C3             0.0636    -1.2293    -0.1916 C.ar    
   4 C4             1.2785    -0.6764     0.1867 C.ar    
   5 C5             1.3675     0.6878     0.3903 C.ar    
   6 N6             0.3190     1.4720     0.2314 N.ar    
   7 C7            -2.9729     0.6164    -0.6992 C.2     
   8 N8            -2.0976     1.5792    -0.3550 N.am    
   9 N9            -2.3517    -0.5785    -0.7108 N.am    
  10 O10           -4.1464     0.7985    -0.9642 O.2     
  11 C11           -2.3865     2.9474    -0.2438 C.ar    
  12 C12           -3.6708     3.4089    -0.4988 C.ar    
  13 C13           -3.9548     4.7556    -0.3887 C.ar    
  14 C14           -2.9569     5.6477    -0.0237 C.ar    
  15 C15           -1.6732     5.1870     0.2313 C.ar    
  16 C16           -1.3896     3.8397     0.1270 C.ar    
  17 O17           -3.2368     6.9738     0.0838 O.3     
  18 C18           -3.9131     7.3937     1.1778 C.2     
  19 N19           -4.2402     6.6384     2.1936 N.2     
  20 C20           -4.9116     7.3787     3.1154 C.ar    
  21 C21           -4.9948     8.6874     2.6117 C.ar    
  22 N22           -4.3497     8.6695     1.3870 N.pl3   
  23 C23           -5.4764     7.0821     4.3578 C.ar    
  24 C24           -6.1083     8.0723     5.0764 C.ar    
  25 C25           -6.1888     9.3646     4.5746 C.ar    
  26 C26           -5.6345     9.6735     3.3474 C.ar    
  27 C27           -4.1717     9.8079     0.4823 C.3     
  28 F28           -6.8127    10.3254     5.2907 F       
  29 C29           -2.9712    -1.8654    -1.0371 C.3     
  30 C30           -3.5346    -2.4978     0.2371 C.3     
  31 H31           -0.0344    -2.2921    -0.3570 H       
  32 H32            2.1458    -1.3056     0.3212 H       
  33 H33            2.3126     1.1194     0.6852 H       
  34 H34           -4.4476     2.7146    -0.7836 H       
  35 H35           -4.9539     5.1147    -0.5871 H       
  36 H36           -0.8967     5.8818     0.5154 H       
  37 H37           -0.3914     3.4806     0.3295 H       
  38 H38           -5.4181     6.0789     4.7536 H       
  39 H39           -6.5448     7.8420     6.0371 H       
  40 H40           -5.6992    10.6803     2.9621 H       
  41 H41           -5.0167     9.8621    -0.2041 H       
  42 H42           -4.1158    10.7285     1.0633 H       
  43 H43           -3.2500     9.6801    -0.0855 H       
  44 H44           -3.7784    -1.7090    -1.7527 H       
  45 H45           -2.2235    -2.5286    -1.4719 H       
  46 H46           -2.7274    -2.6541     0.9527 H       
  47 H47           -4.2823    -1.8345     0.6720 H       
  48 H48           -3.9955    -3.4552    -0.0056 H       
@<TRIPOS>BOND
   1    1    2 ar
   2    1    6 ar
   3    1    8 1
   4    2    3 ar
   5    2    9 1
   6    3    4 ar
   7    3   31 1
   8    4    5 ar
   9    4   32 1
  10    5    6 ar
  11    5   33 1
  12    7    8 am
  13    7    9 am
  14    7   10 2
  15    8   11 1
  16    9   29 1
  17   11   12 ar
  18   11   16 ar
  19   12   13 ar
  20   12   34 1
  21   13   14 ar
  22   13   35 1
  23   14   15 ar
  24   14   17 1
  25   15   16 ar
  26   15   36 1
  27   16   37 1
  28   17   18 1
  29   18   19 2
  30   18   22 1
  31   19   20 1
  32   20   21 ar
  33   20   23 ar
  34   21   22 1
  35   21   26 ar
  36   22   27 1
  37   23   24 ar
  38   23   38 1
  39   24   25 ar
  40   24   39 1
  41   25   26 ar
  42   25   28 1
  43   26   40 1
  44   27   41 1
  45   27   42 1
  46   27   43 1
  47   29   30 1
  48   29   44 1
  49   29   45 1
  50   30   46 1
  51   30   47 1
  52   30   48 1

#	End of record

