#	Name: ASD05380330
#	Creating user name:	WinNT
#	Creation time:	15. 06. 2019 20:59

#	Modifying user name:	WinNT
#	Modification time:	15. 06. 2019 20:59

#	Program:	/corina/corina34_cracker 3.40 0067  02.08.2006

@<TRIPOS>MOLECULE
ASD05380330
  67   71    0    0    0
SMALL
NO_CHARGES


@<TRIPOS>ATOM
   1 N1            -0.6440     2.0087    -0.4646 N.ar    
   2 C2            -0.3552     0.7085    -0.5210 C.ar    
   3 C3             0.9335     0.3162    -0.8811 C.ar    
   4 C4             1.8704     1.3051    -1.1684 C.ar    
   5 N5             1.5084     2.5822    -1.0906 N.ar    
   6 C6             0.2748     2.9193    -0.7452 C.ar    
   7 N7             3.1681     0.9618    -1.5316 N.am    
   8 C8             3.6177     0.6374    -2.8941 C.3     
   9 C9             4.2143     0.8780    -0.6984 C.2     
  10 O10            5.3572     0.5276    -1.2984 O.3     
  11 C11            5.1196     0.3381    -2.7234 C.3     
  12 O12            4.1322     1.1005     0.4932 O.2     
  13 N13           -0.0626     4.2598    -0.6762 N.3     
  14 C14           -1.4868     4.4287    -0.3530 C.3     
  15 C15            0.2731     4.9527    -1.9286 C.3     
  16 C16           -0.0604     6.4403    -1.7877 C.3     
  17 O17           -1.4409     6.5836    -1.4429 O.3     
  18 C18           -1.8026     5.9215    -0.2279 C.3     
  19 C19           -1.3890    -0.3056    -0.2051 C.ar    
  20 C20           -2.1464    -0.2159     0.9663 C.ar    
  21 N21           -3.0584    -1.1393     1.2125 N.ar    
  22 C22           -3.2589    -2.1399     0.3665 C.ar    
  23 N23           -2.5609    -2.2592    -0.7544 N.ar    
  24 C24           -1.6353    -1.3730    -1.0740 C.ar    
  25 C25           -1.9255     0.9176     1.9346 C.3     
  26 F26           -2.4582     2.0964     1.4019 F       
  27 F27           -2.5595     0.6255     3.1470 F       
  28 F28           -0.5537     1.0830     2.1537 F       
  29 N29           -4.2226    -3.0857     0.6614 N.pl3   
  30 C30            3.4104     1.8321    -3.8272 C.3     
  31 O31            2.0142     2.1181    -3.9317 O.3     
  32 C32            5.4253    -1.0816    -3.1258 C.ar    
  33 C33            6.0378    -1.3385    -4.3385 C.ar    
  34 C34            6.3191    -2.6391    -4.7097 C.ar    
  35 C35            5.9865    -3.6878    -3.8646 C.ar    
  36 C36            5.3720    -3.4273    -2.6483 C.ar    
  37 C37            5.0979    -2.1246    -2.2793 C.ar    
  38 O38            6.2618    -4.9681    -4.2277 O.3     
  39 C39            5.8913    -5.9972    -3.3080 C.3     
  40 C40            6.2776    -7.3604    -3.8854 C.3     
  41 O41            7.6998    -7.4456    -3.9951 O.3     
  42 H42            1.1985    -0.7294    -0.9355 H       
  43 H43            3.0911    -0.2387    -3.2726 H       
  44 H44            5.7169     1.0388    -3.3068 H       
  45 H45           -2.0942     3.9934    -1.1465 H       
  46 H46           -1.7075     3.9296     0.5906 H       
  47 H47            1.3370     4.8362    -2.1351 H       
  48 H48           -0.3061     4.5258    -2.7473 H       
  49 H49            0.5578     6.8793    -1.0046 H       
  50 H50            0.1333     6.9478    -2.7327 H       
  51 H51           -2.8689     6.0538    -0.0448 H       
  52 H52           -1.2351     6.3454     0.6005 H       
  53 H53           -1.0705    -1.4763    -1.9887 H       
  54 H54           -4.7409    -3.0117     1.4780 H       
  55 H55           -4.3805    -3.8235     0.0519 H       
  56 H56            3.9303     2.7016    -3.4251 H       
  57 H57            3.8077     1.5954    -4.8142 H       
  58 H58            1.8081     2.8660    -4.5091 H       
  59 H59            6.2962    -0.5218    -4.9962 H       
  60 H60            6.7972    -2.8393    -5.6572 H       
  61 H61            5.1121    -4.2420    -1.9887 H       
  62 H62            4.6196    -1.9213    -1.3326 H       
  63 H63            6.4102    -5.8431    -2.3619 H       
  64 H64            4.8146    -5.9651    -3.1413 H       
  65 H65            5.9161    -8.1498    -3.2263 H       
  66 H66            5.8294    -7.4773    -4.8721 H       
  67 H67            8.0169    -8.2853    -4.3549 H       
@<TRIPOS>BOND
   1    1    2 ar
   2    1    6 ar
   3    2    3 ar
   4    2   19 1
   5    3    4 ar
   6    3   42 1
   7    4    5 ar
   8    4    7 1
   9    5    6 ar
  10    6   13 1
  11    7    8 1
  12    7    9 am
  13    8   30 1
  14    8   11 1
  15    8   43 1
  16    9   10 1
  17    9   12 2
  18   10   11 1
  19   11   32 1
  20   11   44 1
  21   13   14 1
  22   13   15 1
  23   14   18 1
  24   14   45 1
  25   14   46 1
  26   15   16 1
  27   15   47 1
  28   15   48 1
  29   16   17 1
  30   16   49 1
  31   16   50 1
  32   17   18 1
  33   18   51 1
  34   18   52 1
  35   19   20 ar
  36   19   24 ar
  37   20   21 ar
  38   20   25 1
  39   21   22 ar
  40   22   23 ar
  41   22   29 1
  42   23   24 ar
  43   24   53 1
  44   25   26 1
  45   25   27 1
  46   25   28 1
  47   29   54 1
  48   29   55 1
  49   30   31 1
  50   30   56 1
  51   30   57 1
  52   31   58 1
  53   32   33 ar
  54   32   37 ar
  55   33   34 ar
  56   33   59 1
  57   34   35 ar
  58   34   60 1
  59   35   36 ar
  60   35   38 1
  61   36   37 ar
  62   36   61 1
  63   37   62 1
  64   38   39 1
  65   39   40 1
  66   39   63 1
  67   39   64 1
  68   40   41 1
  69   40   65 1
  70   40   66 1
  71   41   67 1

#	End of record

