#	Name: ASD01915116
#	Creating user name:	WinNT
#	Creation time:	15. 06. 2019 20:04

#	Modifying user name:	WinNT
#	Modification time:	15. 06. 2019 20:04

#	Program:	/corina/corina34_cracker 3.40 0067  02.08.2006

@<TRIPOS>MOLECULE
ASD01915116
  13   13    0    0    0
SMALL
NO_CHARGES


@<TRIPOS>ATOM
   1 C1             0.0021    -0.0041     0.0020 C.1     
   2 C2            -0.0173     1.4278     0.0099 C.ar    
   3 C3             1.1773     2.1568     0.0024 C.ar    
   4 C4             1.1044     3.5387     0.0100 C.ar    
   5 C5            -0.1338     4.1560     0.0247 C.ar    
   6 N6            -1.2486     3.4519     0.0320 N.ar    
   7 C7            -1.2372     2.1274     0.0194 C.ar    
   8 N8             0.0175    -1.1399    -0.0042 N.1     
   9 S9            -2.7580     1.2376     0.0223 S.3     
  10 H10            2.1327     1.6533    -0.0087 H       
  11 H11            2.0074     4.1311     0.0049 H       
  12 H12           -0.1882     5.2346     0.0306 H       
  13 H13           -2.9625     1.1069     1.4112 H       
@<TRIPOS>BOND
   1    1    2 1
   2    1    8 3
   3    2    3 ar
   4    2    7 ar
   5    3    4 ar
   6    3   10 1
   7    4    5 ar
   8    4   11 1
   9    5    6 ar
  10    5   12 1
  11    6    7 ar
  12    7    9 1
  13    9   13 1

#	End of record

