#	Name: ASD01882699
#	Creating user name:	WinNT
#	Creation time:	15. 06. 2019 19:45

#	Modifying user name:	WinNT
#	Modification time:	15. 06. 2019 19:45

#	Program:	/corina/corina34_cracker 3.40 0067  02.08.2006

@<TRIPOS>MOLECULE
ASD01882699
  41   44    0    0    0
SMALL
NO_CHARGES


@<TRIPOS>ATOM
   1 C1             0.3541    -0.0802    -2.5548 C.2     
   2 N2             0.5688    -1.2307    -3.1786 N.2     
   3 C3             1.8056    -1.7055    -3.3595 C.2     
   4 C4             2.9167    -0.9687    -2.8768 C.2     
   5 C5             2.6855     0.2004    -2.2437 C.2     
   6 N6             1.4008     0.6394    -2.0858 N.pl3   
   7 O7            -0.8350     0.5130    -2.3114 O.3     
   8 C8             0.8958     1.8632    -1.4406 C.3     
   9 C9            -0.6311     1.7641    -1.6012 C.3     
  10 O10            1.9772    -2.7680    -3.9370 O.2     
  11 C11           -1.1561     2.9402    -2.4270 C.3     
  12 O12           -2.5773     2.8449    -2.5417 O.3     
  13 C13           -3.2063     3.8201    -3.2505 C.ar    
  14 C14           -4.5848     3.7886    -3.4011 C.ar    
  15 C15           -5.2236     4.7789    -4.1214 C.ar    
  16 C16           -4.4866     5.8053    -4.6939 C.ar    
  17 C17           -3.1080     5.8370    -4.5428 C.ar    
  18 C18           -2.4699     4.8495    -3.8181 C.ar    
  19 O19           -5.1154     6.7799    -5.4034 O.3     
  20 C20           -6.4738     6.7699    -5.4358 C.ar    
  21 C21           -7.1972     7.4389    -4.4588 C.ar    
  22 C22           -8.5781     7.4271    -4.4940 C.ar    
  23 C23           -9.2394     6.7495    -5.5017 C.ar    
  24 C24           -8.5209     6.0821    -6.4765 C.ar    
  25 C25           -7.1399     6.0955    -6.4491 C.ar    
  26 H26            3.9238    -1.3346    -3.0122 H       
  27 H27            3.5102     0.7852    -1.8639 H       
  28 H28            1.1709     1.8808    -0.3861 H       
  29 H29            1.2752     2.7487    -1.9505 H       
  30 H30           -1.1186     1.7334    -0.6268 H       
  31 H31           -0.8933     3.8763    -1.9342 H       
  32 H32           -0.7089     2.9148    -3.4207 H       
  33 H33           -5.1585     2.9895    -2.9554 H       
  34 H34           -6.2969     4.7539    -4.2393 H       
  35 H35           -2.5341     6.6361    -4.9885 H       
  36 H36           -1.3970     4.8763    -3.6970 H       
  37 H37           -6.6812     7.9680    -3.6713 H       
  38 H38           -9.1417     7.9473    -3.7336 H       
  39 H39          -10.3191     6.7412    -5.5272 H       
  40 H40           -9.0399     5.5536    -7.2624 H       
  41 H41           -6.5791     5.5781    -7.2135 H       
@<TRIPOS>BOND
   1    1    2 2
   2    1    6 1
   3    1    7 1
   4    2    3 1
   5    3    4 1
   6    3   10 2
   7    4    5 2
   8    4   26 1
   9    5    6 1
  10    5   27 1
  11    6    8 1
  12    7    9 1
  13    8    9 1
  14    8   28 1
  15    8   29 1
  16    9   11 1
  17    9   30 1
  18   11   12 1
  19   11   31 1
  20   11   32 1
  21   12   13 1
  22   13   14 ar
  23   13   18 ar
  24   14   15 ar
  25   14   33 1
  26   15   16 ar
  27   15   34 1
  28   16   17 ar
  29   16   19 1
  30   17   18 ar
  31   17   35 1
  32   18   36 1
  33   19   20 1
  34   20   21 ar
  35   20   25 ar
  36   21   22 ar
  37   21   37 1
  38   22   23 ar
  39   22   38 1
  40   23   24 ar
  41   23   39 1
  42   24   25 ar
  43   24   40 1
  44   25   41 1

#	End of record

