#	Name: ASD03092324
#	Creating user name:	WinNT
#	Creation time:	15. 06. 2019 20:32

#	Modifying user name:	WinNT
#	Modification time:	15. 06. 2019 20:32

#	Program:	/corina/corina34_cracker 3.40 0067  02.08.2006

@<TRIPOS>MOLECULE
ASD03092324
  63   66    0    0    0
SMALL
NO_CHARGES


@<TRIPOS>ATOM
   1 C1             0.3381     1.9844     0.1444 C.2     
   2 C2             0.5500     0.5257     0.2225 C.ar    
   3 C3             1.8470     0.0059     0.2341 C.ar    
   4 C4             2.0405    -1.3555     0.3071 C.ar    
   5 C5             0.9477    -2.2123     0.3688 C.ar    
   6 C6            -0.3440    -1.6992     0.3570 C.ar    
   7 C7            -0.5458    -0.3386     0.2910 C.ar    
   8 O8             1.2928     2.7353     0.0899 O.2     
   9 N9            -0.9137     2.4835     0.1277 N.am    
  10 O10            1.1425    -3.5535     0.4402 O.3     
  11 C11           -0.0243    -4.3762     0.5009 C.3     
  12 C12           -1.1240     3.9313     0.0501 C.3     
  13 S13           -4.9831     4.7252    -0.6389 S.3     
  14 C14           -4.5794     4.5773     1.0156 C.2     
  15 N15           -3.3129     4.3205     1.1493 N.2     
  16 C16           -2.6021     4.2247     0.0467 C.2     
  17 C17           -3.3086     4.4114    -1.0878 C.2     
  18 C18           -2.5481     5.2829    -4.6608 C.ar    
  19 C19           -3.0704     5.3697    -3.3885 C.ar    
  20 C20           -2.7731     4.3611    -2.4622 C.ar    
  21 C21           -1.9528     3.3035    -2.8774 C.ar    
  22 C22           -1.4745     3.2971    -4.1698 C.ar    
  23 N23           -1.7790     4.2684    -5.0105 N.ar    
  24 C24           -0.5912     2.1660    -4.6296 C.3     
  25 C25           -2.8647     6.3573    -5.6689 C.3     
  26 N26           -5.4733     4.7122     2.0623 N.3     
  27 C27           -6.8265     5.0009     1.5656 C.3     
  28 C28           -7.7691     5.2011     2.7553 C.3     
  29 O29           -7.7340     4.0375     3.5860 O.3     
  30 C30           -6.4312     3.7273     4.0877 C.3     
  31 C31           -5.4751     3.5121     2.9115 C.3     
  32 C32           -6.4986     2.4525     4.9311 C.3     
  33 C33           -9.1947     5.4226     2.2460 C.3     
  34 H34            2.6966     0.6709     0.1855 H       
  35 H35            3.0426    -1.7581     0.3161 H       
  36 H36           -1.1905    -2.3682     0.4048 H       
  37 H37           -1.5497     0.0596     0.2867 H       
  38 H38           -1.6754     1.8842     0.1671 H       
  39 H39            0.2721    -5.4237     0.5548 H       
  40 H40           -0.6058    -4.1172     1.3857 H       
  41 H41           -0.6293    -4.2152    -0.3914 H       
  42 H42           -0.6600     4.4125     0.9111 H       
  43 H43           -0.6753     4.3150    -0.8661 H       
  44 H44           -3.6985     6.2027    -3.1094 H       
  45 H45           -1.6989     2.5060    -2.1949 H       
  46 H46           -1.2081     1.3691    -5.0450 H       
  47 H47            0.0960     2.5292    -5.3937 H       
  48 H48           -0.0228     1.7815    -3.7828 H       
  49 H49           -2.1137     7.1450    -5.6085 H       
  50 H50           -2.8611     5.9280    -6.6708 H       
  51 H51           -3.8484     6.7761    -5.4567 H       
  52 H52           -6.8065     5.9073     0.9605 H       
  53 H53           -7.1777     4.1657     0.9596 H       
  54 H54           -7.4487     6.0693     3.3313 H       
  55 H55           -6.0719     4.5526     4.7025 H       
  56 H56           -5.8047     2.6531     2.3270 H       
  57 H57           -4.4685     3.3318     3.2889 H       
  58 H58           -6.8562     1.6276     4.3147 H       
  59 H59           -5.5054     2.2166     5.3132 H       
  60 H60           -7.1824     2.6051     5.7661 H       
  61 H61           -9.5146     4.5530     1.6719 H       
  62 H62           -9.8652     5.5651     3.0935 H       
  63 H63           -9.2200     6.3073     1.6099 H       
@<TRIPOS>BOND
   1    1    2 1
   2    1    8 2
   3    1    9 am
   4    2    3 ar
   5    2    7 ar
   6    3    4 ar
   7    3   34 1
   8    4    5 ar
   9    4   35 1
  10    5    6 ar
  11    5   10 1
  12    6    7 ar
  13    6   36 1
  14    7   37 1
  15    9   12 1
  16    9   38 1
  17   10   11 1
  18   11   39 1
  19   11   40 1
  20   11   41 1
  21   12   16 1
  22   12   42 1
  23   12   43 1
  24   13   14 1
  25   13   17 1
  26   14   15 2
  27   14   26 1
  28   15   16 1
  29   16   17 2
  30   17   20 1
  31   18   19 ar
  32   18   23 ar
  33   18   25 1
  34   19   20 ar
  35   19   44 1
  36   20   21 ar
  37   21   22 ar
  38   21   45 1
  39   22   23 ar
  40   22   24 1
  41   24   46 1
  42   24   47 1
  43   24   48 1
  44   25   49 1
  45   25   50 1
  46   25   51 1
  47   26   27 1
  48   26   31 1
  49   27   28 1
  50   27   52 1
  51   27   53 1
  52   28   29 1
  53   28   33 1
  54   28   54 1
  55   29   30 1
  56   30   31 1
  57   30   32 1
  58   30   55 1
  59   31   56 1
  60   31   57 1
  61   32   58 1
  62   32   59 1
  63   32   60 1
  64   33   61 1
  65   33   62 1
  66   33   63 1

#	End of record

