#	Name: ASD09800039
#	Creating user name:	WinNT
#	Creation time:	15. 06. 2019 21:24

#	Modifying user name:	WinNT
#	Modification time:	15. 06. 2019 21:24

#	Program:	/corina/corina34_cracker 3.40 0067  02.08.2006

@<TRIPOS>MOLECULE
ASD09800039
  61   66    0    0    0
SMALL
NO_CHARGES


@<TRIPOS>ATOM
   1 C1            -3.2603     1.2228     2.8782 C.2     
   2 N2            -4.3457     0.5635     3.2406 N.2     
   3 C3            -5.0513    -0.1540     2.3568 C.2     
   4 C4            -4.6876    -0.2359     1.0641 C.2     
   5 C5            -2.8380     1.1761     1.5342 C.2     
   6 C6            -1.7788     1.7293     0.8229 C.2     
   7 N7            -3.5647     0.4296     0.6253 N.pl3   
   8 C8            -2.9565     0.5529    -0.5681 C.2     
   9 N9            -1.9041     1.3217    -0.4508 N.2     
  10 C10           -0.7168     2.6009     1.3655 C.ar    
  11 C11            0.1368     4.8257     1.9150 C.ar    
  12 C12            1.3196     4.2291     2.4028 C.ar    
  13 C13            1.4650     2.8580     2.3605 C.ar    
  14 C14            0.4600     2.0494     1.8477 C.ar    
  15 C15           -0.8918     4.0070     1.3912 C.ar    
  16 N16            2.3423     5.0255     2.9222 N.am    
  17 C17            3.6074     4.5619     2.9539 C.2     
  18 N18            4.5752     5.2847     3.5516 N.am    
  19 O19            3.8756     3.4914     2.4433 O.2     
  20 C20            5.8666     4.7597     3.6730 C.ar    
  21 C21            7.6682     3.4497     2.7853 C.ar    
  22 C22            6.3929     3.9661     2.6625 C.ar    
  23 C23            6.6269     5.0361     4.8021 C.ar    
  24 C24            7.9011     4.5169     4.9187 C.ar    
  25 C25            8.4205     3.7224     3.9128 C.ar    
  26 N26           -2.5463     1.9582     3.8094 N.pl3   
  27 C27           -3.4156    -0.0994    -1.8466 C.3     
  28 C28           -4.8288     0.2229    -2.3363 C.3     
  29 C29           -3.6154     0.8013    -3.0671 C.3     
  30 C30           -2.8888    -1.5149    -2.0914 C.3     
  31 C31           -0.0373     6.2187     1.9397 C.ar    
  32 C32           -2.0655     4.6010     0.9066 C.ar    
  33 C33           -2.2020     5.9561     0.9455 C.ar    
  34 C34           -1.1903     6.7627     1.4608 C.ar    
  35 C35            8.7269     4.8167     6.1432 C.3     
  36 H36           -5.9337    -0.6800     2.6901 H       
  37 H37           -5.2744    -0.8222     0.3726 H       
  38 H38            2.3721     2.4071     2.7351 H       
  39 H39            0.5964     0.9783     1.8245 H       
  40 H40            2.1422     5.9124     3.2601 H       
  41 H41            4.3766     6.1689     3.8975 H       
  42 H42            8.0780     2.8321     1.9998 H       
  43 H43            5.8056     3.7524     1.7817 H       
  44 H44            6.2220     5.6568     5.5877 H       
  45 H45            9.4173     3.3175     4.0064 H       
  46 H46           -2.7888     1.9188     4.7477 H       
  47 H47           -1.8037     2.5128     3.5233 H       
  48 H48           -5.3831    -0.5733    -2.8332 H       
  49 H49           -5.4265     0.9068    -1.7337 H       
  50 H50           -3.4149     1.8658    -2.9453 H       
  51 H51           -3.3715     0.3856    -4.0448 H       
  52 H52           -3.1734    -2.1576    -1.2583 H       
  53 H53           -3.3154    -1.9067    -3.0147 H       
  54 H54           -1.8024    -1.4888    -2.1755 H       
  55 H55            0.7395     6.8557     2.3363 H       
  56 H56           -2.8578     3.9873     0.5040 H       
  57 H57           -3.1071     6.4111     0.5712 H       
  58 H58           -1.3220     7.8345     1.4812 H       
  59 H59            8.5437     4.0545     6.9005 H       
  60 H60            9.7839     4.8179     5.8772 H       
  61 H61            8.4503     5.7946     6.5374 H       
@<TRIPOS>BOND
   1    1    2 2
   2    1   26 1
   3    1    5 1
   4    2    3 1
   5    3    4 2
   6    3   36 1
   7    4    7 1
   8    4   37 1
   9    5    7 1
  10    5    6 2
  11    6    9 1
  12    6   10 1
  13    7    8 1
  14    8    9 2
  15    8   27 1
  16   10   15 ar
  17   10   14 ar
  18   11   12 ar
  19   11   15 ar
  20   11   31 ar
  21   12   13 ar
  22   12   16 1
  23   13   14 ar
  24   13   38 1
  25   14   39 1
  26   15   32 ar
  27   16   17 am
  28   16   40 1
  29   17   18 am
  30   17   19 2
  31   18   20 1
  32   18   41 1
  33   20   23 ar
  34   20   22 ar
  35   21   22 ar
  36   21   25 ar
  37   21   42 1
  38   22   43 1
  39   23   24 ar
  40   23   44 1
  41   24   25 ar
  42   24   35 1
  43   25   45 1
  44   26   46 1
  45   26   47 1
  46   27   28 1
  47   27   29 1
  48   27   30 1
  49   28   29 1
  50   28   48 1
  51   28   49 1
  52   29   50 1
  53   29   51 1
  54   30   52 1
  55   30   53 1
  56   30   54 1
  57   31   34 ar
  58   31   55 1
  59   32   33 ar
  60   32   56 1
  61   33   34 ar
  62   33   57 1
  63   34   58 1
  64   35   59 1
  65   35   60 1
  66   35   61 1

#	End of record

