#	Name: ASD01812706
#	Creating user name:	WinNT
#	Creation time:	15. 06. 2019 19:29

#	Modifying user name:	WinNT
#	Modification time:	15. 06. 2019 19:29

#	Program:	/corina/corina34_cracker 3.40 0067  02.08.2006

@<TRIPOS>MOLECULE
ASD01812706
  55   59    0    0    0
SMALL
NO_CHARGES


@<TRIPOS>ATOM
   1 C1            -0.0167     1.3779     0.0096 C.ar    
   2 C2             0.0021    -0.0041     0.0020 C.ar    
   3 C3             1.2092    -0.6867    -0.0132 C.ar    
   4 C4             2.3943     0.0078    -0.0207 C.ar    
   5 C5             2.3950     1.4066    -0.0132 C.ar    
   6 C6             1.1743     2.0932     0.0021 C.ar    
   7 C7             3.8414    -0.4179    -0.0373 C.3     
   8 N8             4.6320     0.8183    -0.0384 N.am    
   9 C9             3.7929     1.8683    -0.0245 C.2     
  10 C10            6.0949     0.8953    -0.0517 C.3     
  11 C11            6.5832     0.9289    -1.4770 C.ar    
  12 C12            6.7439     2.1409    -2.1230 C.ar    
  13 C13            7.1913     2.1749    -3.4292 C.ar    
  14 C14            7.4798     0.9905    -4.0937 C.ar    
  15 C15            7.3175    -0.2249    -3.4425 C.ar    
  16 C16            6.8752    -0.2521    -2.1343 C.ar    
  17 O17            1.1550     3.4501     0.0091 O.3     
  18 C18            1.1577     4.0924     1.2856 C.3     
  19 O19            4.1392     3.0338    -0.0223 O.2     
  20 N20            7.9336     1.0217    -5.4197 N.pl3   
  21 F21           -1.1969     2.0353     0.0188 F       
  22 C22            0.4163     5.4272     1.1865 C.3     
  23 C23            0.4192     6.1148     2.5533 C.3     
  24 C24            1.8624     6.3646     2.9955 C.3     
  25 C25            2.6038     5.0299     3.0946 C.3     
  26 C26            2.6009     4.3422     1.7278 C.3     
  27 O27           -0.9316     5.1938     0.7735 O.3     
  28 N28            8.1466     2.1713    -6.1914 N.2     
  29 C29            8.2489    -0.0523    -6.1785 C.2     
  30 C30            8.6423     0.4015    -7.3911 C.2     
  31 C31            8.5744     1.7989    -7.3709 C.2     
  32 H32           -0.9271    -0.5546     0.0083 H       
  33 H33            1.2175    -1.7667    -0.0187 H       
  34 H34            4.0687    -1.0073     0.8510 H       
  35 H35            4.0511    -0.9977    -0.9361 H       
  36 H36            6.4157     1.8006     0.4637 H       
  37 H37            6.5093     0.0231     0.4539 H       
  38 H38            6.5189     3.0619    -1.6057 H       
  39 H39            7.3162     3.1218    -3.9334 H       
  40 H40            7.5408    -1.1478    -3.9570 H       
  41 H41            6.7533    -1.1970    -1.6257 H       
  42 H42            0.6596     3.4535     2.0149 H       
  43 H43            0.9144     6.0661     0.4573 H       
  44 H44           -0.1089     7.0657     2.4827 H       
  45 H45           -0.0788     5.4759     3.2825 H       
  46 H46            2.3605     7.0036     2.2662 H       
  47 H47            1.8645     6.8545     3.9692 H       
  48 H48            3.6319     5.2079     3.4096 H       
  49 H49            2.1057     4.3909     3.8238 H       
  50 H50            3.1290     3.3913     1.7984 H       
  51 H51            3.0989     4.9812     0.9986 H       
  52 H52           -1.4620     5.9980     0.6894 H       
  53 H53            8.1966    -1.0864    -5.8716 H       
  54 H54            8.9597    -0.2071    -8.2249 H       
  55 H55            8.8272     2.4568    -8.1892 H       
@<TRIPOS>BOND
   1    1    2 ar
   2    1    6 ar
   3    1   21 1
   4    2    3 ar
   5    2   32 1
   6    3    4 ar
   7    3   33 1
   8    4    7 1
   9    4    5 ar
  10    5    6 ar
  11    5    9 1
  12    6   17 1
  13    7    8 1
  14    7   34 1
  15    7   35 1
  16    8    9 am
  17    8   10 1
  18    9   19 2
  19   10   11 1
  20   10   36 1
  21   10   37 1
  22   11   12 ar
  23   11   16 ar
  24   12   13 ar
  25   12   38 1
  26   13   14 ar
  27   13   39 1
  28   14   15 ar
  29   14   20 1
  30   15   16 ar
  31   15   40 1
  32   16   41 1
  33   17   18 1
  34   18   22 1
  35   18   26 1
  36   18   42 1
  37   20   29 1
  38   20   28 1
  39   22   23 1
  40   22   27 1
  41   22   43 1
  42   23   24 1
  43   23   44 1
  44   23   45 1
  45   24   25 1
  46   24   46 1
  47   24   47 1
  48   25   26 1
  49   25   48 1
  50   25   49 1
  51   26   50 1
  52   26   51 1
  53   27   52 1
  54   28   31 2
  55   29   30 2
  56   29   53 1
  57   30   31 1
  58   30   54 1
  59   31   55 1

#	End of record

