#	Name: ASD00122004
#	Creating user name:	WinNT
#	Creation time:	15. 06. 2019 18:31

#	Modifying user name:	WinNT
#	Modification time:	15. 06. 2019 18:31

#	Program:	/corina/corina34_cracker 3.40 0067  02.08.2006

@<TRIPOS>MOLECULE
ASD00122004
  41   41    0    0    0
SMALL
NO_CHARGES


@<TRIPOS>ATOM
   1 C1            -0.0168     1.3858     0.0097 C.ar    
   2 C2             0.0021    -0.0041     0.0020 C.ar    
   3 C3             1.2130    -0.6863    -0.0132 C.ar    
   4 C4             2.3993     0.0128    -0.0203 C.ar    
   5 C5             2.3846     1.4101    -0.0126 C.ar    
   6 C6             1.1652     2.0922     0.0022 C.ar    
   7 C7             3.6539     2.1635    -0.0197 C.2     
   8 N8             3.6377     3.5111    -0.0123 N.am    
   9 O9             4.7140     1.5683    -0.0322 O.2     
  10 C10            4.8974     4.2589    -0.0193 C.3     
  11 C11            5.3876     4.4188    -1.4599 C.3     
  12 C12            4.6741     5.6401     0.5997 C.3     
  13 C13            4.3046     5.4836     2.0761 C.3     
  14 C14            5.7296     3.0441    -2.0378 C.3     
  15 O15           -1.1649    -0.6968     0.0099 O.3     
  16 C16           -1.0730    -2.1228     0.0013 C.3     
  17 C17           -2.4796    -2.7246     0.0120 C.3     
  18 C18           -2.3812    -4.2514     0.0029 C.3     
  19 H19           -0.9597     1.9123     0.0170 H       
  20 H20            1.2235    -1.7663    -0.0191 H       
  21 H21            3.3397    -0.5180    -0.0314 H       
  22 H22            1.1497     3.1721     0.0078 H       
  23 H23            2.7919     3.9859    -0.0024 H       
  24 H24            5.6447     3.7173     0.5607 H       
  25 H25            4.6045     4.8810    -2.0609 H       
  26 H26            6.2761     5.0499    -1.4734 H       
  27 H27            5.5876     6.2286     0.5142 H       
  28 H28            3.8648     6.1472     0.0744 H       
  29 H29            5.1139     4.9765     2.6015 H       
  30 H30            4.1455     6.4676     2.5171 H       
  31 H31            3.3910     4.8951     2.1616 H       
  32 H32            4.8410     2.4129    -2.0243 H       
  33 H33            6.0788     3.1580    -3.0640 H       
  34 H34            6.5127     2.5819    -1.4367 H       
  35 H35           -0.5457    -2.4475    -0.8957 H       
  36 H36           -0.5280    -2.4570     0.8841 H       
  37 H37           -3.0069    -2.3999     0.9090 H       
  38 H38           -3.0245    -2.3903    -0.8708 H       
  39 H39           -1.8539    -4.5761    -0.8942 H       
  40 H40           -1.8362    -4.5856     0.8857 H       
  41 H41           -3.3833    -4.6801     0.0105 H       
@<TRIPOS>BOND
   1    1    2 ar
   2    1    6 ar
   3    1   19 1
   4    2    3 ar
   5    2   15 1
   6    3    4 ar
   7    3   20 1
   8    4    5 ar
   9    4   21 1
  10    5    6 ar
  11    5    7 1
  12    6   22 1
  13    7    8 am
  14    7    9 2
  15    8   10 1
  16    8   23 1
  17   10   11 1
  18   10   12 1
  19   10   24 1
  20   11   14 1
  21   11   25 1
  22   11   26 1
  23   12   13 1
  24   12   27 1
  25   12   28 1
  26   13   29 1
  27   13   30 1
  28   13   31 1
  29   14   32 1
  30   14   33 1
  31   14   34 1
  32   15   16 1
  33   16   17 1
  34   16   35 1
  35   16   36 1
  36   17   18 1
  37   17   37 1
  38   17   38 1
  39   18   39 1
  40   18   40 1
  41   18   41 1

#	End of record

