#	Name: ASD01890148
#	Creating user name:	WinNT
#	Creation time:	15. 06. 2019 19:50

#	Modifying user name:	WinNT
#	Modification time:	15. 06. 2019 19:50

#	Program:	/corina/corina34_cracker 3.40 0067  02.08.2006

@<TRIPOS>MOLECULE
ASD01890148
  35   36    0    0    0
SMALL
NO_CHARGES


@<TRIPOS>ATOM
   1 C1            -0.0279     1.4541    -0.0223 C.2     
   2 C2            -0.0036    -0.0080    -0.0415 C.2     
   3 C3             1.1740    -0.6622    -0.1145 C.2     
   4 C4             2.4493     0.1057    -0.3495 C.3     
   5 C5             3.0808     0.4693     0.9958 C.3     
   6 O6             1.0138     2.0788     0.0397 O.2     
   7 O7            -1.2054     2.1100    -0.0788 O.3     
   8 C8             1.2133    -2.1258     0.0352 C.ar    
   9 C9             0.5943    -2.9460    -0.9133 C.ar    
  10 C10            0.6357    -4.3183    -0.7654 C.ar    
  11 C11            1.2888    -4.8818     0.3200 C.ar    
  12 C12            1.9024    -4.0751     1.2617 C.ar    
  13 C13            1.8746    -2.7031     1.1237 C.ar    
  14 F14            0.0383    -5.1134    -1.6799 F       
  15 C15            4.3561     1.2372     0.7609 C.ar    
  16 C16            4.3247     2.6159     0.6649 C.ar    
  17 C17            5.4940     3.3207     0.4495 C.ar    
  18 C18            6.6959     2.6461     0.3299 C.ar    
  19 C19            6.7267     1.2663     0.4261 C.ar    
  20 C20            5.5576     0.5630     0.6472 C.ar    
  21 Cl21           8.1649     3.5306     0.0587 Cl      
  22 H22           -0.9284    -0.5640     0.0026 H       
  23 H23            3.1434    -0.5092    -0.9223 H       
  24 H24            2.2276     1.0170    -0.9049 H       
  25 H25            2.3867     1.0843     1.5687 H       
  26 H26            3.3025    -0.4420     1.5513 H       
  27 H27           -1.1205     3.0731    -0.0604 H       
  28 H28            0.0852    -2.5074    -1.7588 H       
  29 H29            1.3183    -5.9556     0.4312 H       
  30 H30            2.4090    -4.5212     2.1047 H       
  31 H31            2.3586    -2.0756     1.8575 H       
  32 H32            3.3863     3.1424     0.7579 H       
  33 H33            5.4693     4.3978     0.3741 H       
  34 H34            7.6647     0.7391     0.3328 H       
  35 H35            5.5820    -0.5138     0.7267 H       
@<TRIPOS>BOND
   1    1    2 1
   2    1    6 2
   3    1    7 1
   4    2    3 2
   5    2   22 1
   6    3    4 1
   7    3    8 1
   8    4    5 1
   9    4   23 1
  10    4   24 1
  11    5   15 1
  12    5   25 1
  13    5   26 1
  14    7   27 1
  15    8    9 ar
  16    8   13 ar
  17    9   10 ar
  18    9   28 1
  19   10   11 ar
  20   10   14 1
  21   11   12 ar
  22   11   29 1
  23   12   13 ar
  24   12   30 1
  25   13   31 1
  26   15   16 ar
  27   15   20 ar
  28   16   17 ar
  29   16   32 1
  30   17   18 ar
  31   17   33 1
  32   18   19 ar
  33   18   21 1
  34   19   20 ar
  35   19   34 1
  36   20   35 1

#	End of record

