#	Name: ASD03091798
#	Creating user name:	WinNT
#	Creation time:	15. 06. 2019 20:31

#	Modifying user name:	WinNT
#	Modification time:	15. 06. 2019 20:31

#	Program:	/corina/corina34_cracker 3.40 0067  02.08.2006

@<TRIPOS>MOLECULE
ASD03091798
  47   51    0    0    0
SMALL
NO_CHARGES


@<TRIPOS>ATOM
   1 N1            -0.0165     1.3641     0.0095 N.pl3   
   2 C2             0.0021    -0.0041     0.0020 C.2     
   3 C3             1.2698    -0.4448    -0.0124 C.2     
   4 C4             2.1340     0.7385    -0.0143 C.ar    
   5 C5             3.5155     0.9285    -0.0265 C.ar    
   6 C6             4.0261     2.2193    -0.0244 C.ar    
   7 C7             3.1588     3.3171    -0.0098 C.ar    
   8 C8             1.8062     3.1361     0.0026 C.ar    
   9 C9             1.2714     1.8506    -0.0001 C.ar    
  10 C10            5.4935     2.4351    -0.0373 C.ar    
  11 C11            6.0119     3.7342    -0.0352 C.ar    
  12 C12            7.3877     3.8834    -0.0471 C.ar    
  13 C13            8.1712     2.7307    -0.0603 C.ar    
  14 N14            7.5942     1.5397    -0.0612 N.ar    
  15 N15            6.3188     1.3970    -0.0452 N.ar    
  16 O16            9.5245     2.8296    -0.0726 O.3     
  17 C17           12.4395     0.5464    -0.6982 C.3     
  18 C18           11.5911     1.8224    -0.8194 C.3     
  19 C19           10.2642     1.6071    -0.0857 C.3     
  20 C20           10.5359     1.1606     1.3537 C.3     
  21 C21           11.4558    -0.0706     1.3275 C.3     
  22 C22           10.8850    -1.0655     0.2909 C.3     
  23 C23           11.5350    -0.6578    -1.0477 C.3     
  24 N24           12.7536     0.3612     0.7435 N.3     
  25 C25           13.7836    -0.6695     0.9298 C.3     
  26 H26           -0.8181     1.9101     0.0165 H       
  27 H27           -0.8738    -0.6359     0.0075 H       
  28 H28            1.5917    -1.4757    -0.0207 H       
  29 H29            4.1822     0.0789    -0.0371 H       
  30 H30            3.5640     4.3182    -0.0079 H       
  31 H31            1.1486     3.9928     0.0142 H       
  32 H32            5.3588     4.5942    -0.0251 H       
  33 H33            7.8407     4.8638    -0.0465 H       
  34 H34           13.3322     0.5862    -1.3224 H       
  35 H35           12.1249     2.6598    -0.3701 H       
  36 H36           11.3967     2.0331    -1.8710 H       
  37 H37            9.6862     0.8391    -0.5997 H       
  38 H38           11.0224     1.9682     1.9007 H       
  39 H39            9.5950     0.9030     1.8398 H       
  40 H40           11.5666    -0.5213     2.3138 H       
  41 H41           11.1629    -2.0865     0.5521 H       
  42 H42            9.8009    -0.9701     0.2307 H       
  43 H43           10.7705    -0.3621    -1.7661 H       
  44 H44           12.1326    -1.4784    -1.4447 H       
  45 H45           14.6938    -0.3718     0.4092 H       
  46 H46           13.9943    -0.7847     1.9930 H       
  47 H47           13.4270    -1.6168     0.5253 H       
@<TRIPOS>BOND
   1    1    2 1
   2    1    9 1
   3    1   26 1
   4    2    3 2
   5    2   27 1
   6    3    4 1
   7    3   28 1
   8    4    5 ar
   9    4    9 ar
  10    5    6 ar
  11    5   29 1
  12    6    7 ar
  13    6   10 1
  14    7    8 ar
  15    7   30 1
  16    8    9 ar
  17    8   31 1
  18   10   11 ar
  19   10   15 ar
  20   11   12 ar
  21   11   32 1
  22   12   13 ar
  23   12   33 1
  24   13   14 ar
  25   13   16 1
  26   14   15 ar
  27   16   19 1
  28   17   18 1
  29   17   23 1
  30   17   24 1
  31   17   34 1
  32   18   19 1
  33   18   35 1
  34   18   36 1
  35   19   20 1
  36   19   37 1
  37   20   21 1
  38   20   38 1
  39   20   39 1
  40   21   22 1
  41   21   24 1
  42   21   40 1
  43   22   23 1
  44   22   41 1
  45   22   42 1
  46   23   43 1
  47   23   44 1
  48   24   25 1
  49   25   45 1
  50   25   46 1
  51   25   47 1

#	End of record

