#	Name: ASD04550083
#	Creating user name:	WinNT
#	Creation time:	15. 06. 2019 20:49

#	Modifying user name:	WinNT
#	Modification time:	15. 06. 2019 20:49

#	Program:	/corina/corina34_cracker 3.40 0067  02.08.2006

@<TRIPOS>MOLECULE
ASD04550083
  32   32    0    0    0
SMALL
NO_CHARGES


@<TRIPOS>ATOM
   1 C1            -0.1712     1.1901     0.8982 C.ar    
   2 C2            -0.0663    -0.1684     0.6734 C.ar    
   3 C3             1.1282    -0.7035     0.2076 C.ar    
   4 C4             2.2133     0.1306    -0.0304 C.ar    
   5 C5             2.1015     1.4882     0.1965 C.ar    
   6 C6             0.9110     2.0176     0.6602 C.ar    
   7 C7             0.7926     3.4996     0.9063 C.3     
   8 C8             1.0517     4.2555    -0.3985 C.3     
   9 C9             1.8057     3.9198     1.9399 C.2     
  10 O10            2.2741     5.0450     1.9121 O.co2   
  11 O11            2.1568     3.1344     2.8038 O.co2   
  12 N12            1.2380    -2.0779    -0.0205 N.pl3   
  13 C13            0.1559    -2.7864    -0.5211 C.2     
  14 C14           -1.0023    -4.5845    -1.1540 C.2     
  15 C15           -1.9408    -3.6842    -1.4491 C.2     
  16 S16           -1.3110    -2.0874    -1.0529 S.3     
  17 N17            0.1114    -4.0752    -0.6593 N.2     
  18 C18           -1.1977    -6.0638    -1.3651 C.3     
  19 F19           -0.7695    -6.4120    -2.6506 F       
  20 F20           -0.4520    -6.7727    -0.4171 F       
  21 F21           -2.5532    -6.3800    -1.2234 F       
  22 H22           -1.1008     1.6074     1.2560 H       
  23 H23           -0.9117    -0.8141     0.8598 H       
  24 H24            3.1434    -0.2823    -0.3922 H       
  25 H25            2.9448     2.1372     0.0120 H       
  26 H26           -0.2103     3.7292     1.2662 H       
  27 H27            2.0546     4.0260    -0.7584 H       
  28 H28            0.3190     3.9517    -1.1461 H       
  29 H29            0.9661     5.3275    -0.2205 H       
  30 H30            2.0710    -2.5363     0.1713 H       
  31 H31           -2.9163    -3.8968    -1.8610 H       
  32 Na32           8.1434    10.3275     7.8038 Du      
@<TRIPOS>BOND
   1    1    2 ar
   2    1    6 ar
   3    1   22 1
   4    2    3 ar
   5    2   23 1
   6    3    4 ar
   7    3   12 1
   8    4    5 ar
   9    4   24 1
  10    5    6 ar
  11    5   25 1
  12    6    7 1
  13    7    8 1
  14    7    9 1
  15    7   26 1
  16    8   27 1
  17    8   28 1
  18    8   29 1
  19    9   10 ar
  20    9   11 ar
  21   12   13 1
  22   12   30 1
  23   13   17 2
  24   13   16 1
  25   14   15 2
  26   14   17 1
  27   14   18 1
  28   15   16 1
  29   15   31 1
  30   18   19 1
  31   18   20 1
  32   18   21 1

#	End of record

