#	Name: ASD04590998
#	Creating user name:	WinNT
#	Creation time:	15. 06. 2019 20:51

#	Modifying user name:	WinNT
#	Modification time:	15. 06. 2019 20:51

#	Program:	/corina/corina34_cracker 3.40 0067  02.08.2006

@<TRIPOS>MOLECULE
ASD04590998
  62   67    0    0    0
SMALL
NO_CHARGES


@<TRIPOS>ATOM
   1 N1            -0.0151     1.3221     0.0090 N.ar    
   2 C2             0.0024    -0.0046     0.0082 C.ar    
   3 N3             1.1300    -0.6974     0.0060 N.ar    
   4 C4             2.3057    -0.0758     0.0045 C.ar    
   5 C5             2.3202     1.3324     0.0052 C.ar    
   6 C6             1.1106     2.0179     0.0075 C.ar    
   7 N7             3.6041    -0.5219     0.0017 N.pl3   
   8 C8             4.4840     0.5488     0.0005 C.ar    
   9 C9             3.7361     1.7361     0.0026 C.ar    
  10 C10            5.8730     0.6192    -0.0029 C.ar    
  11 C11            6.5025     1.8456    -0.0041 C.ar    
  12 C12            5.7623     3.0177    -0.0016 C.ar    
  13 C13            4.3848     2.9684     0.0020 C.ar    
  14 C14            4.0034    -1.9314     0.0006 C.3     
  15 N15           -1.2018    -0.6885     0.0103 N.pl3   
  16 C16           -2.4069     0.0153     0.1318 C.ar    
  17 C17           -3.5403    -0.4279    -0.5371 C.ar    
  18 C18           -4.7281     0.2659    -0.4173 C.ar    
  19 C19           -4.7893     1.4068     0.3720 C.ar    
  20 C20           -3.6558     1.8500     1.0409 C.ar    
  21 C21           -2.4694     1.1530     0.9256 C.ar    
  22 N22           -5.9931     2.1103     0.4930 N.3     
  23 C23            3.4505    -2.6191     1.2506 C.3     
  24 C24            3.8675    -4.0912     1.2494 C.3     
  25 C25            3.3105    -4.7780     0.0009 C.3     
  26 C26            3.8633    -4.0904    -1.2490 C.3     
  27 C27            3.4464    -2.6183    -1.2479 C.3     
  28 C28           -5.8345     3.2784     1.3705 C.3     
  29 C29           -7.1479     4.0631     1.4131 C.3     
  30 N30           -8.2236     3.1867     1.8970 N.3     
  31 C31           -8.3822     2.0185     1.0195 C.3     
  32 C32           -7.0688     1.2339     0.9769 C.3     
  33 H33            1.0900     3.0977     0.0078 H       
  34 H34            6.4590    -0.2880    -0.0041 H       
  35 H35            7.5814     1.8937    -0.0067 H       
  36 H36            6.2667     3.9727    -0.0022 H       
  37 H37            3.8102     3.8829     0.0039 H       
  38 H38            5.0912    -2.0009    -0.0012 H       
  39 H39           -1.2108    -1.6550    -0.0724 H       
  40 H40           -3.4926    -1.3150    -1.1512 H       
  41 H41           -5.6094    -0.0786    -0.9378 H       
  42 H42           -3.7032     2.7376     1.6544 H       
  43 H43           -1.5879     1.4976     1.4458 H       
  44 H44            3.8474    -2.1297     2.1400 H       
  45 H45            2.3627    -2.5496     1.2524 H       
  46 H46            4.9553    -4.1607     1.2476 H       
  47 H47            3.4736    -4.5810     2.1399 H       
  48 H48            3.6075    -5.8268     0.0001 H       
  49 H49            2.2227    -4.7085     0.0027 H       
  50 H50            4.9511    -4.1599    -1.2509 H       
  51 H51            3.4665    -4.5798    -2.1385 H       
  52 H52            2.3586    -2.5488    -1.2461 H       
  53 H53            3.8402    -2.1284    -2.1384 H       
  54 H54           -5.5769     2.9457     2.3760 H       
  55 H55           -5.0410     3.9182     0.9844 H       
  56 H56           -7.0415     4.9139     2.0861 H       
  57 H57           -7.3914     4.4191     0.4121 H       
  58 H58           -8.0571     2.9025     2.8507 H       
  59 H59           -9.1757     1.3787     1.4056 H       
  60 H60           -8.6398     2.3513     0.0140 H       
  61 H61           -7.1752     0.3831     0.3039 H       
  62 H62           -6.8253     0.8779     1.9779 H       
@<TRIPOS>BOND
   1    1    2 ar
   2    1    6 ar
   3    2    3 ar
   4    2   15 1
   5    3    4 ar
   6    4    5 ar
   7    4    7 1
   8    5    6 ar
   9    5    9 1
  10    6   33 1
  11    7    8 1
  12    7   14 1
  13    8    9 ar
  14    8   10 ar
  15    9   13 ar
  16   10   11 ar
  17   10   34 1
  18   11   12 ar
  19   11   35 1
  20   12   13 ar
  21   12   36 1
  22   13   37 1
  23   14   23 1
  24   14   27 1
  25   14   38 1
  26   15   16 1
  27   15   39 1
  28   16   17 ar
  29   16   21 ar
  30   17   18 ar
  31   17   40 1
  32   18   19 ar
  33   18   41 1
  34   19   20 ar
  35   19   22 1
  36   20   21 ar
  37   20   42 1
  38   21   43 1
  39   22   28 1
  40   22   32 1
  41   23   24 1
  42   23   44 1
  43   23   45 1
  44   24   25 1
  45   24   46 1
  46   24   47 1
  47   25   26 1
  48   25   48 1
  49   25   49 1
  50   26   27 1
  51   26   50 1
  52   26   51 1
  53   27   52 1
  54   27   53 1
  55   28   29 1
  56   28   54 1
  57   28   55 1
  58   29   30 1
  59   29   56 1
  60   29   57 1
  61   30   31 1
  62   30   58 1
  63   31   32 1
  64   31   59 1
  65   31   60 1
  66   32   61 1
  67   32   62 1

#	End of record

