#	Name: ASD01882378
#	Creating user name:	WinNT
#	Creation time:	15. 06. 2019 19:44

#	Modifying user name:	WinNT
#	Modification time:	15. 06. 2019 19:44

#	Program:	/corina/corina34_cracker 3.40 0067  02.08.2006

@<TRIPOS>MOLECULE
ASD01882378
  44   46    0    0    0
SMALL
NO_CHARGES


@<TRIPOS>ATOM
   1 C1            -0.0159     1.3250     0.0093 C.2     
   2 N2             0.0021    -0.0041     0.0020 N.2     
   3 C3             1.1598    -0.6471    -0.1194 C.2     
   4 C4             2.4657     0.0595    -0.3547 C.3     
   5 C5             2.4478     1.4494     0.2975 C.3     
   6 N6             1.1427     2.0519     0.0022 N.pl3   
   7 O7            -1.0914     2.1228     0.0506 O.3     
   8 C8             0.8310     3.4340    -0.3540 C.3     
   9 C9            -0.7103     3.4383    -0.4604 C.3     
  10 O10            1.1623    -1.8594    -0.0361 O.2     
  11 C11           -1.1492     3.5983    -1.9173 C.3     
  12 O12           -2.5765     3.6117    -1.9860 O.3     
  13 C13           -3.1336     3.7478    -3.2180 C.ar    
  14 C14           -4.5137     3.7688    -3.3581 C.ar    
  15 C15           -5.0776     3.9072    -4.6116 C.ar    
  16 C16           -4.2678     4.0246    -5.7261 C.ar    
  17 C17           -2.8921     4.0035    -5.5892 C.ar    
  18 C18           -2.3232     3.8716    -4.3372 C.ar    
  19 C19           -4.8856     4.1755    -7.0923 C.3     
  20 C20           -5.7473     5.4393    -7.1257 C.3     
  21 C21           -3.7789     4.2848    -8.1432 C.3     
  22 C22           -5.7577     2.9554    -7.3952 C.3     
  23 H23            3.2766    -0.5294     0.0741 H       
  24 H24            2.6297     0.1665    -1.4270 H       
  25 H25            2.5774     1.3551     1.3756 H       
  26 H26            3.2439     2.0656    -0.1204 H       
  27 H27            1.1638     4.1165     0.4280 H       
  28 H28            1.2827     3.6952    -1.3110 H       
  29 H29           -1.1355     4.2284     0.1586 H       
  30 H30           -0.7575     4.5349    -2.3140 H       
  31 H31           -0.7650     2.7653    -2.5061 H       
  32 H32           -5.1467     3.6767    -2.4879 H       
  33 H33           -6.1519     3.9232    -4.7212 H       
  34 H34           -2.2616     4.0948    -6.4614 H       
  35 H35           -1.2486     3.8600    -4.2303 H       
  36 H36           -5.1259     6.3085    -6.9100 H       
  37 H37           -6.1941     5.5484    -8.1139 H       
  38 H38           -6.5356     5.3614    -6.3771 H       
  39 H39           -3.1650     3.3844    -8.1194 H       
  40 H40           -4.2258     4.3939    -9.1314 H       
  41 H41           -3.1576     5.1540    -7.9275 H       
  42 H42           -6.5461     2.8775    -6.6465 H       
  43 H43           -6.2046     3.0645    -8.3834 H       
  44 H44           -5.1438     2.0550    -7.3714 H       
@<TRIPOS>BOND
   1    1    2 2
   2    1    6 1
   3    1    7 1
   4    2    3 1
   5    3    4 1
   6    3   10 2
   7    4    5 1
   8    4   23 1
   9    4   24 1
  10    5    6 1
  11    5   25 1
  12    5   26 1
  13    6    8 1
  14    7    9 1
  15    8    9 1
  16    8   27 1
  17    8   28 1
  18    9   11 1
  19    9   29 1
  20   11   12 1
  21   11   30 1
  22   11   31 1
  23   12   13 1
  24   13   14 ar
  25   13   18 ar
  26   14   15 ar
  27   14   32 1
  28   15   16 ar
  29   15   33 1
  30   16   17 ar
  31   16   19 1
  32   17   18 ar
  33   17   34 1
  34   18   35 1
  35   19   20 1
  36   19   22 1
  37   19   21 1
  38   20   36 1
  39   20   37 1
  40   20   38 1
  41   21   39 1
  42   21   40 1
  43   21   41 1
  44   22   42 1
  45   22   43 1
  46   22   44 1

#	End of record

