#	Name: ASD01410287
#	Creating user name:	WinNT
#	Creation time:	15. 06. 2019 19:17

#	Modifying user name:	WinNT
#	Modification time:	15. 06. 2019 19:17

#	Program:	/corina/corina34_cracker 3.40 0067  02.08.2006

@<TRIPOS>MOLECULE
ASD01410287
  69   74    0    0    0
SMALL
NO_CHARGES


@<TRIPOS>ATOM
   1 C1             1.7724     1.7371     0.4057 C.2     
   2 C2             2.5456     0.6610     0.6221 C.2     
   3 C3             1.8343    -0.4757     0.0222 C.2     
   4 C4             0.6887     0.0416    -0.5013 C.2     
   5 O5             0.6717     1.3591    -0.2622 O.3     
   6 N6             1.4836    -2.9159    -0.2053 N.2     
   7 C7             2.2712    -1.8868    -0.0073 C.2     
   8 N8             3.5600    -2.3160     0.1674 N.pl3   
   9 C9             3.5509    -3.6920     0.0689 C.ar    
  10 C10            2.2132    -4.0594    -0.1698 C.ar    
  11 C11            4.5375    -4.6673     0.1571 C.ar    
  12 C12            4.2142    -5.9854     0.0122 C.ar    
  13 C13            2.8881    -6.3695    -0.2264 C.ar    
  14 C14            1.8866    -5.4076    -0.3169 C.ar    
  15 C15            7.0298    -0.8909    -0.3763 C.3     
  16 C16            7.5818    -1.1774     1.0215 C.3     
  17 C17            6.5063    -0.8743     2.0666 C.3     
  18 C18            5.2832    -1.7572     1.8105 C.3     
  19 C19            4.7311    -1.4707     0.4126 C.3     
  20 C20            5.8067    -1.7738    -0.6324 C.3     
  21 C21            2.5522    -7.7990    -0.3817 C.2     
  22 N22            3.5206    -8.7322    -0.2939 N.am    
  23 O23            1.4020    -8.1342    -0.5887 O.2     
  24 C24            3.1874   -10.1505    -0.4479 C.3     
  25 C25            2.7251   -10.7148     0.8970 C.3     
  26 C26            4.4049   -10.9045    -0.9172 C.2     
  27 N27            4.3343   -12.2337    -1.1288 N.am    
  28 O28            5.4483   -10.3151    -1.1046 O.2     
  29 C29            6.3318   -12.2303    -2.4946 C.ar    
  30 C30            7.4102   -12.8830    -3.0454 C.ar    
  31 C31            7.6078   -14.2381    -2.7938 C.ar    
  32 C32            6.6985   -14.9341    -1.9739 C.ar    
  33 C33            5.6041   -14.2573    -1.4191 C.ar    
  34 C34            5.4274   -12.9142    -1.6816 C.ar    
  35 N35            8.5701   -15.1367    -3.1951 N.pl3   
  36 C36            8.2821   -16.3714    -2.6460 C.2     
  37 C37            7.1496   -16.2739    -1.9000 C.2     
  38 C38            9.0725   -17.5944    -2.8385 C.2     
  39 O39            8.7268   -18.6316    -2.3068 O.2     
  40 O40           10.1817   -17.5667    -3.6049 O.3     
  41 H41            1.9979     2.7447     0.7226 H       
  42 H42            3.4968     0.6361     1.1331 H       
  43 H43           -0.0760    -0.5158    -1.0216 H       
  44 H44            5.5627    -4.3812     0.3404 H       
  45 H45            4.9861    -6.7376     0.0816 H       
  46 H46            0.8641    -5.7027    -0.5008 H       
  47 H47            6.7416     0.1580    -0.4452 H       
  48 H48            7.7960    -1.1068    -1.1209 H       
  49 H49            7.8701    -2.2264     1.0904 H       
  50 H50            8.4532    -0.5485     1.2040 H       
  51 H51            6.8996    -1.0784     3.0625 H       
  52 H52            6.2181     0.1746     1.9977 H       
  53 H53            5.5714    -2.8061     1.8794 H       
  54 H54            4.5169    -1.5413     2.5551 H       
  55 H55            4.4429    -0.4218     0.3437 H       
  56 H56            5.4134    -1.5697    -1.6283 H       
  57 H57            6.0949    -2.8227    -0.5636 H       
  58 H58            4.4383    -8.4648    -0.1287 H       
  59 H59            2.3882   -10.2584    -1.1813 H       
  60 H60            3.5242   -10.6069     1.6303 H       
  61 H61            1.8444   -10.1694     1.2364 H       
  62 H62            2.4771   -11.7700     0.7823 H       
  63 H63            3.5268   -12.7192    -0.8984 H       
  64 H64            6.1864   -11.1781    -2.6898 H       
  65 H65            8.1039   -12.3440    -3.6736 H       
  66 H66            4.9023   -14.7843    -0.7897 H       
  67 H67            9.3259   -14.9362    -3.7691 H       
  68 H68            6.6790   -17.0749    -1.3492 H       
  69 H69           10.6690   -18.3963    -3.7021 H       
@<TRIPOS>BOND
   1    1    2 2
   2    1    5 1
   3    1   41 1
   4    2    3 1
   5    2   42 1
   6    3    4 2
   7    3    7 1
   8    4    5 1
   9    4   43 1
  10    6    7 2
  11    6   10 1
  12    7    8 1
  13    8    9 1
  14    8   19 1
  15    9   10 ar
  16    9   11 ar
  17   10   14 ar
  18   11   12 ar
  19   11   44 1
  20   12   13 ar
  21   12   45 1
  22   13   14 ar
  23   13   21 1
  24   14   46 1
  25   15   16 1
  26   15   20 1
  27   15   47 1
  28   15   48 1
  29   16   17 1
  30   16   49 1
  31   16   50 1
  32   17   18 1
  33   17   51 1
  34   17   52 1
  35   18   19 1
  36   18   53 1
  37   18   54 1
  38   19   20 1
  39   19   55 1
  40   20   56 1
  41   20   57 1
  42   21   22 am
  43   21   23 2
  44   22   24 1
  45   22   58 1
  46   24   25 1
  47   24   26 1
  48   24   59 1
  49   25   60 1
  50   25   61 1
  51   25   62 1
  52   26   27 am
  53   26   28 2
  54   27   34 1
  55   27   63 1
  56   29   30 ar
  57   29   34 ar
  58   29   64 1
  59   30   31 ar
  60   30   65 1
  61   31   32 ar
  62   31   35 1
  63   32   33 ar
  64   32   37 1
  65   33   34 ar
  66   33   66 1
  67   35   36 1
  68   35   67 1
  69   36   37 2
  70   36   38 1
  71   37   68 1
  72   38   39 2
  73   38   40 1
  74   40   69 1

#	End of record

