#	Name: ASD00710004
#	Creating user name:	WinNT
#	Creation time:	15. 06. 2019 18:37

#	Modifying user name:	WinNT
#	Modification time:	15. 06. 2019 18:37

#	Program:	/corina/corina34_cracker 3.40 0067  02.08.2006

@<TRIPOS>MOLECULE
ASD00710004
  73   77    0    0    0
SMALL
NO_CHARGES


@<TRIPOS>ATOM
   1 O1            -0.0173     1.4248     0.0099 O.3     
   2 C2             0.0021    -0.0041     0.0020 C.3     
   3 C3             0.6884    -0.5402    -1.2779 C.3     
   4 O4             0.6925     0.4591    -2.2993 O.3     
   5 C5            -0.1829    -1.7392    -1.6997 C.3     
   6 O6            -1.2203    -1.8810    -0.7149 O.3     
   7 C7            -1.4320    -0.5759    -0.1347 C.3     
   8 N8            -2.0683    -0.6927     1.1797 N.pl3   
   9 C9            -1.5032    -1.5040     2.1543 C.2     
  10 C10           -2.2043    -1.9022     3.1925 C.2     
  11 C11           -3.6421    -1.5092     3.3744 C.3     
  12 C12           -3.9983    -0.3526     2.4844 C.2     
  13 C13           -3.2148     0.0014     1.4474 C.2     
  14 C14           -5.1779     0.3837     2.7436 C.2     
  15 O15           -5.4783     1.3236     2.0298 O.2     
  16 N16           -5.9694     0.0452     3.7806 N.am    
  17 C17            0.6679    -3.0100    -1.7458 C.3     
  18 O18           -0.1186    -4.0918    -2.2489 O.3     
  19 P19            0.4580    -5.5838    -2.4326 P.3     
  20 O20            1.6728    -5.5427    -3.2769 O.2     
  21 O21           -0.6560    -6.5063    -3.1398 O.3     
  22 P22           -0.6227    -7.9449    -3.8618 P.3     
  23 O23            0.6060    -8.0584    -4.6790 O.2     
  24 O24           -1.9143    -8.0993    -4.8105 O.3     
  25 C25           -2.1203    -9.2238    -5.6679 C.3     
  26 C26           -3.4386    -9.0529    -6.4253 C.3     
  27 O27           -3.3417    -7.9405    -7.3305 O.3     
  28 C28           -4.1321    -8.2723    -8.4923 C.3     
  29 C29           -3.8258    -9.7744    -8.7210 C.3     
  30 C30           -3.7233   -10.3088    -7.2717 C.3     
  31 O31           -4.9557   -10.9121    -6.8727 O.3     
  32 O32           -4.8940   -10.4111    -9.4249 O.3     
  33 N33           -3.7091    -7.4777    -9.6481 N.pl3   
  34 C34           -2.4876    -6.8993    -9.8257 C.2     
  35 N35           -2.4555    -6.2690   -10.9639 N.2     
  36 C36           -3.6509    -6.4026   -11.5871 C.ar    
  37 C37           -4.4677    -7.1842   -10.7529 C.ar    
  38 N38           -5.7074    -7.4647   -11.1417 N.ar    
  39 C39           -6.1672    -7.0183   -12.2913 C.ar    
  40 N40           -5.4374    -6.2806   -13.1084 N.ar    
  41 C41           -4.1856    -5.9525   -12.8064 C.ar    
  42 N42           -3.4287    -5.1788   -13.6688 N.pl3   
  43 O43           -0.6344    -9.1057    -2.7462 O.3     
  44 O44            0.8269    -6.1979    -0.9908 O.3     
  45 H45            0.8606     1.8301     0.0037 H       
  46 H46            0.4915    -0.3895     0.8964 H       
  47 H47            1.7058    -0.8640    -1.0581 H       
  48 H48            1.1782     1.2611    -2.0630 H       
  49 H49           -0.6242    -1.5505    -2.6784 H       
  50 H50           -2.0318     0.0466    -0.7987 H       
  51 H51           -0.4727    -1.8126     2.0579 H       
  52 H52           -1.7334    -2.5295     3.9348 H       
  53 H53           -4.2795    -2.3589     3.1301 H       
  54 H54           -3.8073    -1.2255     4.4138 H       
  55 H55           -3.4994     0.8328     0.8196 H       
  56 H56           -5.7302    -0.7034     4.3491 H       
  57 H57           -6.7784     0.5501     3.9583 H       
  58 H58            1.5254    -2.8496    -2.3992 H       
  59 H59            1.0164    -3.2505    -0.7414 H       
  60 H60           -1.2983    -9.2928    -6.3803 H       
  61 H61           -2.1602   -10.1342    -5.0698 H       
  62 H62           -4.2525    -8.8866    -5.7195 H       
  63 H63           -5.1928    -8.1232    -8.2902 H       
  64 H64           -2.8818    -9.9026    -9.2506 H       
  65 H65           -2.9029   -11.0213    -7.1850 H       
  66 H66           -5.2132   -11.6734    -7.4106 H       
  67 H67           -4.7489   -11.3525    -9.5920 H       
  68 H68           -1.6676    -6.9554    -9.1251 H       
  69 H69           -7.1790    -7.2647   -12.5774 H       
  70 H70           -3.8109    -4.8694   -14.5049 H       
  71 H71           -2.5160    -4.9459   -13.4372 H       
  72 H72           -1.4128    -9.0922    -2.1727 H       
  73 H73            0.0763    -6.2548    -0.3838 H       
@<TRIPOS>BOND
   1    1    2 1
   2    1   45 1
   3    2    3 1
   4    2    7 1
   5    2   46 1
   6    3    4 1
   7    3    5 1
   8    3   47 1
   9    4   48 1
  10    5    6 1
  11    5   17 1
  12    5   49 1
  13    6    7 1
  14    7    8 1
  15    7   50 1
  16    8    9 1
  17    8   13 1
  18    9   10 2
  19    9   51 1
  20   10   11 1
  21   10   52 1
  22   11   12 1
  23   11   53 1
  24   11   54 1
  25   12   13 2
  26   12   14 1
  27   13   55 1
  28   14   15 2
  29   14   16 am
  30   16   56 1
  31   16   57 1
  32   17   18 1
  33   17   58 1
  34   17   59 1
  35   18   19 1
  36   19   20 2
  37   19   21 1
  38   19   44 1
  39   21   22 1
  40   22   23 2
  41   22   24 1
  42   22   43 1
  43   24   25 1
  44   25   26 1
  45   25   60 1
  46   25   61 1
  47   26   27 1
  48   26   30 1
  49   26   62 1
  50   27   28 1
  51   28   29 1
  52   28   33 1
  53   28   63 1
  54   29   30 1
  55   29   32 1
  56   29   64 1
  57   30   31 1
  58   30   65 1
  59   31   66 1
  60   32   67 1
  61   33   34 1
  62   33   37 1
  63   34   35 2
  64   34   68 1
  65   35   36 1
  66   36   37 ar
  67   36   41 ar
  68   37   38 ar
  69   38   39 ar
  70   39   40 ar
  71   39   69 1
  72   40   41 ar
  73   41   42 1
  74   42   70 1
  75   42   71 1
  76   43   72 1
  77   44   73 1

#	End of record

