#	Name: ASD01420213
#	Creating user name:	WinNT
#	Creation time:	15. 06. 2019 19:20

#	Modifying user name:	WinNT
#	Modification time:	15. 06. 2019 19:20

#	Program:	/corina/corina34_cracker 3.40 0067  02.08.2006

@<TRIPOS>MOLECULE
ASD01420213
  42   45    0    0    0
SMALL
NO_CHARGES


@<TRIPOS>ATOM
   1 C1            -0.0171     1.4082     0.0098 C.ar    
   2 C2             0.0021    -0.0041     0.0020 C.ar    
   3 C3            -1.2150    -0.7085     0.0104 C.ar    
   4 C4            -2.4166    -0.0178     0.0267 C.ar    
   5 C5            -2.4245     1.3648     0.0349 C.ar    
   6 C6            -1.2404     2.0765     0.0309 C.ar    
   7 N7             0.9921    -0.9138    -0.0127 N.2     
   8 C8             0.4834    -2.1247    -0.0141 C.2     
   9 N9            -0.8822    -2.0508    -0.0001 N.pl3   
  10 C10            1.2672    -3.3762    -0.0282 C.2     
  11 C11            2.6781    -3.4737    -0.0418 C.2     
  12 C12            3.0013    -4.7900    -0.0511 C.2     
  13 N13            1.8445    -5.5032    -0.0438 N.pl3   
  14 N14            0.7746    -4.5998    -0.0245 N.2     
  15 N15            3.5821    -2.3994    -0.0455 N.am    
  16 C16            4.9090    -2.6352    -0.0589 C.2     
  17 O17            5.3233    -3.7785    -0.0678 O.2     
  18 C18            5.8588    -1.5064    -0.0627 C.ar    
  19 C19            6.3005    -0.9627    -1.2738 C.ar    
  20 C20            7.1901     0.0951    -1.2682 C.ar    
  21 C21            7.6439     0.6159    -0.0700 C.ar    
  22 C22            7.2124     0.0845     1.1319 C.ar    
  23 C23            6.3186    -0.9697     1.1448 C.ar    
  24 F24            5.8980    -1.4870     2.3198 F       
  25 F25            5.8591    -1.4705    -2.4454 F       
  26 C26            1.2436     2.1677     0.0018 C.2     
  27 O27            2.3072     1.5798    -0.0115 O.2     
  28 O28            1.2185     3.5154     0.0093 O.3     
  29 C29            2.4997     4.1986     0.0007 C.3     
  30 H30           -3.3498    -0.5614     0.0327 H       
  31 H31           -3.3660     1.8938     0.0476 H       
  32 H32           -1.2626     3.1562     0.0374 H       
  33 H33           -1.5003    -2.7984     0.0017 H       
  34 H34            4.0007    -5.1993    -0.0629 H       
  35 H35            1.7725    -6.4706    -0.0478 H       
  36 H36            3.2516    -1.4874    -0.0383 H       
  37 H37            7.5321     0.5161    -2.2021 H       
  38 H38            8.3395     1.4420    -0.0728 H       
  39 H39            7.5718     0.4972     2.0630 H       
  40 H40            2.3369     5.2764     0.0081 H       
  41 H41            3.0706     3.9114     0.8838 H       
  42 H42            3.0536     3.9210    -0.8961 H       
@<TRIPOS>BOND
   1    1    2 ar
   2    1   26 1
   3    1    6 ar
   4    2    3 ar
   5    2    7 1
   6    3    4 ar
   7    3    9 1
   8    4    5 ar
   9    4   30 1
  10    5    6 ar
  11    5   31 1
  12    6   32 1
  13    7    8 2
  14    8    9 1
  15    8   10 1
  16    9   33 1
  17   10   11 1
  18   10   14 2
  19   11   12 2
  20   11   15 1
  21   12   13 1
  22   12   34 1
  23   13   14 1
  24   13   35 1
  25   15   16 am
  26   15   36 1
  27   16   18 1
  28   16   17 2
  29   18   19 ar
  30   18   23 ar
  31   19   20 ar
  32   19   25 1
  33   20   21 ar
  34   20   37 1
  35   21   22 ar
  36   21   38 1
  37   22   23 ar
  38   22   39 1
  39   23   24 1
  40   26   27 2
  41   26   28 1
  42   28   29 1
  43   29   40 1
  44   29   41 1
  45   29   42 1

#	End of record

