#	Name: ASD01916778
#	Creating user name:	WinNT
#	Creation time:	15. 06. 2019 20:08

#	Modifying user name:	WinNT
#	Modification time:	15. 06. 2019 20:08

#	Program:	/corina/corina34_cracker 3.40 0067  02.08.2006

@<TRIPOS>MOLECULE
ASD01916778
  61   65    0    0    0
SMALL
NO_CHARGES


@<TRIPOS>ATOM
   1 C1            -0.0167     1.3813     0.0096 C.ar    
   2 C2             0.0021    -0.0041     0.0020 C.ar    
   3 C3             1.2089    -0.6844    -0.0127 C.ar    
   4 C4             2.3978     0.0157    -0.0199 C.ar    
   5 C5             2.3835     1.4091    -0.0128 C.ar    
   6 C6             1.1675     2.0893     0.0021 C.ar    
   7 C7             3.6597     2.1663    -0.0200 C.2     
   8 N8             3.7758     3.5011    -0.0142 N.2     
   9 N9             4.8641     1.6385    -0.0273 N.2     
  10 N10            5.7738     2.7084    -0.0322 N.pl3   
  11 C11            5.0392     3.8351    -0.0234 C.2     
  12 C12            5.5803     5.2417    -0.0251 C.3     
  13 C13            7.2358     2.6155    -0.0408 C.3     
  14 C14            7.7288     2.5849    -1.4646 C.2     
  15 O15            6.9369     2.6356    -2.3818 O.2     
  16 N16            9.0498     2.5011    -1.7187 N.am    
  17 C17            9.5522     2.4698    -3.1007 C.3     
  18 C18           10.6443     3.5349    -3.2458 C.3     
  19 N19           11.6647     3.3298    -2.2091 N.3     
  20 C20           11.1005     3.5047    -0.8641 C.3     
  21 C21           10.0275     2.4446    -0.6214 C.3     
  22 C22           12.7474     4.1692    -2.4059 C.ar    
  23 N23           13.7665     4.1193    -1.5606 N.ar    
  24 N24           12.7426     4.9998    -3.4381 N.ar    
  25 C25           14.8165     4.9078    -1.7201 C.ar    
  26 C26           14.8417     5.7928    -2.7864 C.ar    
  27 C27           13.7615     5.8151    -3.6547 C.ar    
  28 C28            5.7509     5.7207    -1.4681 C.3     
  29 F29           -1.1597    -0.6935     0.0095 F       
  30 C30            6.2920     7.1272    -1.4698 C.ar    
  31 C31            7.6575     7.3425    -1.4812 C.ar    
  32 C32            5.4229     8.2021    -1.4657 C.ar    
  33 C33            5.9192     9.4923    -1.4673 C.ar    
  34 C34            7.2847     9.7076    -1.4725 C.ar    
  35 C35            8.1538     8.6326    -1.4827 C.ar    
  36 H36           -0.9597     1.9077     0.0170 H       
  37 H37            1.2191    -1.7644    -0.0183 H       
  38 H38            3.3381    -0.5154    -0.0307 H       
  39 H39            1.1520     3.1692     0.0077 H       
  40 H40            4.8846     5.8992     0.4961 H       
  41 H41            6.5458     5.2601     0.4804 H       
  42 H42            7.6579     3.4802     0.4713 H       
  43 H43            7.5450     1.7038     0.4704 H       
  44 H44            9.9691     1.4861    -3.3165 H       
  45 H45            8.7370     2.6848    -3.7916 H       
  46 H46           11.1044     3.4523    -4.2304 H       
  47 H47           10.2039     4.5254    -3.1316 H       
  48 H48           11.8915     3.4002    -0.1214 H       
  49 H49           10.6537     4.4956    -0.7831 H       
  50 H50            9.5274     2.6402     0.3272 H       
  51 H51           10.4873     1.4566    -0.5991 H       
  52 H52           15.6440     4.8627    -1.0275 H       
  53 H53           15.6864     6.4481    -2.9398 H       
  54 H54           13.7499     6.4929    -4.4954 H       
  55 H55            6.4466     5.0632    -1.9894 H       
  56 H56            4.7854     5.7023    -1.9737 H       
  57 H57            8.3365     6.5026    -1.4885 H       
  58 H58            4.3560     8.0340    -1.4617 H       
  59 H59            5.2402    10.3321    -1.4648 H       
  60 H60            7.6725    10.7155    -1.4740 H       
  61 H61            9.2206     8.8008    -1.4868 H       
@<TRIPOS>BOND
   1    1    2 ar
   2    1    6 ar
   3    1   36 1
   4    2    3 ar
   5    2   29 1
   6    3    4 ar
   7    3   37 1
   8    4    5 ar
   9    4   38 1
  10    5    6 ar
  11    5    7 1
  12    6   39 1
  13    7    8 1
  14    7    9 2
  15    8   11 2
  16    9   10 1
  17   10   11 1
  18   10   13 1
  19   11   12 1
  20   12   28 1
  21   12   40 1
  22   12   41 1
  23   13   14 1
  24   13   42 1
  25   13   43 1
  26   14   15 2
  27   14   16 am
  28   16   17 1
  29   16   21 1
  30   17   18 1
  31   17   44 1
  32   17   45 1
  33   18   19 1
  34   18   46 1
  35   18   47 1
  36   19   20 1
  37   19   22 1
  38   20   21 1
  39   20   48 1
  40   20   49 1
  41   21   50 1
  42   21   51 1
  43   22   23 ar
  44   22   24 ar
  45   23   25 ar
  46   24   27 ar
  47   25   26 ar
  48   25   52 1
  49   26   27 ar
  50   26   53 1
  51   27   54 1
  52   28   30 1
  53   28   55 1
  54   28   56 1
  55   30   31 ar
  56   30   32 ar
  57   31   35 ar
  58   31   57 1
  59   32   33 ar
  60   32   58 1
  61   33   34 ar
  62   33   59 1
  63   34   35 ar
  64   34   60 1
  65   35   61 1

#	End of record

