#	Name: ASD01880874
#	Creating user name:	WinNT
#	Creation time:	15. 06. 2019 19:41

#	Modifying user name:	WinNT
#	Modification time:	15. 06. 2019 19:41

#	Program:	/corina/corina34_cracker 3.40 0067  02.08.2006

@<TRIPOS>MOLECULE
ASD01880874
  42   44    0    0    0
SMALL
NO_CHARGES


@<TRIPOS>ATOM
   1 N1            -0.0159     1.3188     0.0093 N.ar    
   2 C2             0.0021    -0.0041     0.0020 C.ar    
   3 N3             1.1382    -0.6825    -0.0120 N.ar    
   4 C4             2.3024    -0.0537    -0.0198 C.ar    
   5 C5             2.3221     1.3316    -0.0130 C.ar    
   6 C6             1.1128     2.0110     0.0022 C.ar    
   7 C7             3.6281     2.0834    -0.0209 C.3     
   8 O8             4.7131     1.1535    -0.0353 O.3     
   9 C9             5.9677     1.6707    -0.0440 C.ar    
  10 C10            7.0697     0.8211    -0.0582 C.ar    
  11 C11            8.3383     1.3455    -0.0674 C.ar    
  12 C12            8.5315     2.7309    -0.0626 C.ar    
  13 C13            7.4213     3.5798    -0.0488 C.ar    
  14 C14            6.1508     3.0484    -0.0445 C.ar    
  15 C15            9.7126     0.7240    -0.0830 C.3     
  16 N16           10.6665     1.8391    -0.0865 N.am    
  17 C17            9.9808     2.9950    -0.0747 C.2     
  18 O18           10.4850     4.1014    -0.0745 O.2     
  19 C19            7.6142     5.0744    -0.0429 C.3     
  20 Br20           1.0766     3.9016     0.0115 Br      
  21 O21           -1.1714    -0.6807     0.0096 O.3     
  22 C22           -1.0974    -2.1078     0.0012 C.3     
  23 C23           12.6212     1.6757    -1.5473 C.3     
  24 C24           12.1260     1.7131    -0.1001 C.3     
  25 H25            3.2259    -0.6135    -0.0309 H       
  26 H26            3.6787     2.7145    -0.9082 H       
  27 H27            3.6947     2.7055     0.8717 H       
  28 H28            6.9271    -0.2494    -0.0616 H       
  29 H29            5.2933     3.7048    -0.0342 H       
  30 H30            9.8566     0.1106     0.8065 H       
  31 H31            9.8401     0.1191    -0.9807 H       
  32 H32            7.6518     5.4399    -1.0691 H       
  33 H33            6.7824     5.5460     0.4805 H       
  34 H34            8.5477     5.3183     0.4642 H       
  35 H35           -0.5570    -2.4488     0.8843 H       
  36 H36           -2.1049    -2.5239     0.0086 H       
  37 H37           -0.5740    -2.4392    -0.8956 H       
  38 H38           12.1780     0.8226    -2.0610 H       
  39 H39           12.3312     2.5959    -2.0544 H       
  40 H40           13.7071     1.5820    -1.5574 H       
  41 H41           12.5691     2.5662     0.4136 H       
  42 H42           12.4160     0.7929     0.4070 H       
@<TRIPOS>BOND
   1    1    2 ar
   2    1    6 ar
   3    2    3 ar
   4    2   21 1
   5    3    4 ar
   6    4    5 ar
   7    4   25 1
   8    5    6 ar
   9    5    7 1
  10    6   20 1
  11    7    8 1
  12    7   26 1
  13    7   27 1
  14    8    9 1
  15    9   10 ar
  16    9   14 ar
  17   10   11 ar
  18   10   28 1
  19   11   12 ar
  20   11   15 1
  21   12   13 ar
  22   12   17 1
  23   13   14 ar
  24   13   19 1
  25   14   29 1
  26   15   16 1
  27   15   30 1
  28   15   31 1
  29   16   17 am
  30   16   24 1
  31   17   18 2
  32   19   32 1
  33   19   33 1
  34   19   34 1
  35   21   22 1
  36   22   35 1
  37   22   36 1
  38   22   37 1
  39   23   24 1
  40   23   38 1
  41   23   39 1
  42   23   40 1
  43   24   41 1
  44   24   42 1

#	End of record

