#	Name: ASD01916415
#	Creating user name:	WinNT
#	Creation time:	15. 06. 2019 20:07

#	Modifying user name:	WinNT
#	Modification time:	15. 06. 2019 20:07

#	Program:	/corina/corina34_cracker 3.40 0067  02.08.2006

@<TRIPOS>MOLECULE
ASD01916415
  27   27    0    0    0
SMALL
NO_CHARGES


@<TRIPOS>ATOM
   1 C1            -0.0557     1.4818     0.2614 C.2     
   2 C2            -0.0597    -0.0251     0.2489 C.3     
   3 C3             1.3501    -0.5413     0.5438 C.3     
   4 C4             1.3463    -2.0132     0.5316 C.1     
   5 C5             1.3432    -3.1872     0.5218 C.1     
   6 O6             0.9734     2.0837     0.4843 O.2     
   7 N7            -1.1946     2.1607     0.0195 N.am    
   8 C8            -1.2153     3.5552     0.1328 C.ar    
   9 C9            -0.4996     4.3370    -0.7646 C.ar    
  10 C10           -0.5221     5.7132    -0.6500 C.ar    
  11 C11           -1.2562     6.3127     0.3568 C.ar    
  12 C12           -1.9696     5.5371     1.2522 C.ar    
  13 C13           -1.9562     4.1606     1.1393 C.ar    
  14 C14           -2.4108     1.4386    -0.3622 C.3     
  15 H15           -0.7479    -0.3930     1.0099 H       
  16 H16           -0.3787    -0.3795    -0.7313 H       
  17 H17            2.0383    -0.1734    -0.2172 H       
  18 H18            1.6691    -0.1869     1.5240 H       
  19 H19            1.3404    -4.2372     0.5131 H       
  20 H20            0.0742     3.8693    -1.5509 H       
  21 H21            0.0346     6.3217    -1.3473 H       
  22 H22           -1.2722     7.3891     0.4443 H       
  23 H23           -2.5417     6.0083     2.0377 H       
  24 H24           -2.5174     3.5556     1.8360 H       
  25 H25           -2.9731     1.1752     0.5337 H       
  26 H26           -3.0239     2.0727    -1.0027 H       
  27 H27           -2.1403     0.5308    -0.9014 H       
@<TRIPOS>BOND
   1    1    2 1
   2    1    6 2
   3    1    7 am
   4    2    3 1
   5    2   15 1
   6    2   16 1
   7    3    4 1
   8    3   17 1
   9    3   18 1
  10    4    5 3
  11    5   19 1
  12    7    8 1
  13    7   14 1
  14    8    9 ar
  15    8   13 ar
  16    9   10 ar
  17    9   20 1
  18   10   11 ar
  19   10   21 1
  20   11   12 ar
  21   11   22 1
  22   12   13 ar
  23   12   23 1
  24   13   24 1
  25   14   25 1
  26   14   26 1
  27   14   27 1

#	End of record

