#	Name: ASD01816818
#	Creating user name:	WinNT
#	Creation time:	15. 06. 2019 19:36

#	Modifying user name:	WinNT
#	Modification time:	15. 06. 2019 19:36

#	Program:	/corina/corina34_cracker 3.40 0067  02.08.2006

@<TRIPOS>MOLECULE
ASD01816818
  54   57    0    0    0
SMALL
NO_CHARGES


@<TRIPOS>ATOM
   1 C1            -0.0168     1.3897     0.0097 C.ar    
   2 C2             0.0021    -0.0041     0.0020 C.ar    
   3 C3             1.1796    -0.6877    -0.0129 C.ar    
   4 C4             2.3927     0.0187    -0.0207 C.ar    
   5 C5             2.3768     1.4381    -0.0130 C.ar    
   6 C6             1.1385     2.1078     0.0025 C.ar    
   7 C7             3.6297    -0.6529    -0.0357 C.ar    
   8 C8             4.7711     0.0956    -0.0422 C.ar    
   9 C9             4.6871     1.4959    -0.0340 C.ar    
  10 N10            3.5238     2.1168    -0.0199 N.ar    
  11 C11            5.9353     2.2963    -0.0412 C.2     
  12 N12            5.8725     3.6426    -0.0335 N.am    
  13 O13            7.0146     1.7386    -0.0541 O.2     
  14 C14            7.1057     4.4335    -0.0406 C.3     
  15 C15            7.5896     4.6106    -1.4812 C.3     
  16 C16            6.8349     5.8060     0.5789 C.3     
  17 C17            8.1228     6.6319     0.5714 C.3     
  18 C18            8.6067     6.8091    -0.8692 C.3     
  19 C19            8.8775     5.4366    -1.4887 C.3     
  20 O20            6.3829     5.6405     1.9244 O.3     
  21 C21            3.6922    -2.1586    -0.0438 C.3     
  22 C22            3.5760    -2.6586    -1.4607 C.ar    
  23 C23            4.7070    -2.8400    -2.2308 C.ar    
  24 C24            2.3300    -2.9468    -2.0029 C.ar    
  25 C25            2.2670    -3.4032    -3.3066 C.ar    
  26 C26            3.4478    -3.5575    -4.0275 C.ar    
  27 N27            4.6175    -3.2769    -3.4728 N.ar    
  28 S28            3.3865    -4.1386    -5.6898 S.3     
  29 C29            5.1336    -4.1661    -6.1770 C.3     
  30 H30           -0.9643     1.9080     0.0170 H       
  31 H31           -0.9302    -0.5493     0.0084 H       
  32 H32            1.1803    -1.7677    -0.0184 H       
  33 H33            1.1059     3.1873     0.0090 H       
  34 H34            5.7363    -0.3889    -0.0533 H       
  35 H35            5.0108     4.0879    -0.0231 H       
  36 H36            7.8713     3.9179     0.5391 H       
  37 H37            7.7825     3.6328    -1.9225 H       
  38 H38            6.8239     5.1262    -2.0609 H       
  39 H39            6.0692     6.3216    -0.0008 H       
  40 H40            7.9299     7.6098     1.0127 H       
  41 H41            8.8884     6.1164     1.1511 H       
  42 H42            7.8410     7.3247    -1.4489 H       
  43 H43            9.5242     7.3975    -0.8745 H       
  44 H44            9.6431     4.9210    -0.9090 H       
  45 H45            9.2222     5.5628    -2.5150 H       
  46 H46            6.1915     6.4717     2.3800 H       
  47 H47            4.6418    -2.4851     0.3800 H       
  48 H48            2.8717    -2.5595     0.5513 H       
  49 H49            5.6780    -2.6213    -1.8114 H       
  50 H50            1.4306    -2.8177    -1.4191 H       
  51 H51            1.3148    -3.6372    -3.7593 H       
  52 H52            5.5483    -3.1611    -6.0996 H       
  53 H53            5.6840    -4.8380    -5.5184 H       
  54 H54            5.2184    -4.5159    -7.2059 H       
@<TRIPOS>BOND
   1    1    2 ar
   2    1    6 ar
   3    1   30 1
   4    2    3 ar
   5    2   31 1
   6    3    4 ar
   7    3   32 1
   8    4    5 ar
   9    4    7 ar
  10    5    6 ar
  11    5   10 ar
  12    6   33 1
  13    7    8 ar
  14    7   21 1
  15    8    9 ar
  16    8   34 1
  17    9   10 ar
  18    9   11 1
  19   11   12 am
  20   11   13 2
  21   12   14 1
  22   12   35 1
  23   14   15 1
  24   14   16 1
  25   14   36 1
  26   15   19 1
  27   15   37 1
  28   15   38 1
  29   16   17 1
  30   16   20 1
  31   16   39 1
  32   17   18 1
  33   17   40 1
  34   17   41 1
  35   18   19 1
  36   18   42 1
  37   18   43 1
  38   19   44 1
  39   19   45 1
  40   20   46 1
  41   21   22 1
  42   21   47 1
  43   21   48 1
  44   22   23 ar
  45   22   24 ar
  46   23   27 ar
  47   23   49 1
  48   24   25 ar
  49   24   50 1
  50   25   26 ar
  51   25   51 1
  52   26   27 ar
  53   26   28 1
  54   28   29 1
  55   29   52 1
  56   29   53 1
  57   29   54 1

#	End of record

