#	Name: ASD01814179
#	Creating user name:	WinNT
#	Creation time:	15. 06. 2019 19:31

#	Modifying user name:	WinNT
#	Modification time:	15. 06. 2019 19:31

#	Program:	/corina/corina34_cracker 3.40 0067  02.08.2006

@<TRIPOS>MOLECULE
ASD01814179
  43   46    0    0    0
SMALL
NO_CHARGES


@<TRIPOS>ATOM
   1 C1             7.2714     1.2160    -0.6900 C.ar    
   2 C2             7.1890    -0.1677    -0.6879 C.ar    
   3 C3             5.9843    -0.8022    -0.4723 C.ar    
   4 C4             4.8318    -0.0534    -0.2534 C.ar    
   5 C5             4.9148     1.3498    -0.2554 C.ar    
   6 C6             6.1418     1.9806    -0.4751 C.ar    
   7 N7             3.6220    -0.6776    -0.0373 N.pl3   
   8 C8             2.4853    -0.0025     0.1771 C.2     
   9 C9             2.4420     1.3767     0.1980 C.2     
  10 C10            3.6871     2.1308    -0.0224 C.2     
  11 C11            1.1742     2.0809     0.4363 C.2     
  12 O12            1.1448     3.4285     0.4544 O.3     
  13 O13            0.1521     1.4481     0.6171 O.2     
  14 O14            3.7017     3.3493    -0.0132 O.2     
  15 C15            3.5775    -2.1419    -0.0430 C.3     
  16 C16            3.4327    -2.6347    -1.4597 C.ar    
  17 C17            2.1788    -2.6464    -2.0701 C.ar    
  18 N18            2.0150    -3.0684    -3.3016 N.ar    
  19 C19            3.0473    -3.5076    -4.0288 C.ar    
  20 C20            4.3489    -3.5221    -3.4686 C.ar    
  21 C21            4.5299    -3.0648    -2.1493 C.ar    
  22 C22            2.8638    -3.9589    -5.3481 C.ar    
  23 C23            3.9306    -4.4010    -6.0662 C.ar    
  24 C24            5.2148    -4.4157    -5.5134 C.ar    
  25 C25            5.4299    -3.9847    -4.2351 C.ar    
  26 F26            6.2226     3.3292    -0.4773 F       
  27 Cl27           0.7986    -2.0887    -1.1769 Cl      
  28 O28            6.2609    -4.8638    -6.2562 O.3     
  29 C29            5.9723    -5.3011    -7.5857 C.3     
  30 H30            8.2235     1.6979    -0.8560 H       
  31 H31            8.0790    -0.7556    -0.8574 H       
  32 H32            5.9347    -1.8811    -0.4737 H       
  33 H33            1.5721    -0.5560     0.3387 H       
  34 H34            0.2878     3.8468     0.6149 H       
  35 H35            4.4992    -2.5351     0.3861 H       
  36 H36            2.7275    -2.4819     0.5486 H       
  37 H37            5.5085    -3.0622    -1.6923 H       
  38 H38            1.8781    -3.9548    -5.7896 H       
  39 H39            3.7836    -4.7464    -7.0789 H       
  40 H40            6.4255    -3.9995    -3.8169 H       
  41 H41            5.2628    -6.1278    -7.5503 H       
  42 H42            5.5415    -4.4766    -8.1539 H       
  43 H43            6.8925    -5.6323    -8.0670 H       
@<TRIPOS>BOND
   1    1    2 ar
   2    1    6 ar
   3    1   30 1
   4    2    3 ar
   5    2   31 1
   6    3    4 ar
   7    3   32 1
   8    4    5 ar
   9    4    7 1
  10    5    6 ar
  11    5   10 1
  12    6   26 1
  13    7    8 1
  14    7   15 1
  15    8    9 2
  16    8   33 1
  17    9   10 1
  18    9   11 1
  19   10   14 2
  20   11   12 1
  21   11   13 2
  22   12   34 1
  23   15   16 1
  24   15   35 1
  25   15   36 1
  26   16   17 ar
  27   16   21 ar
  28   17   18 ar
  29   17   27 1
  30   18   19 ar
  31   19   20 ar
  32   19   22 ar
  33   20   21 ar
  34   20   25 ar
  35   21   37 1
  36   22   23 ar
  37   22   38 1
  38   23   24 ar
  39   23   39 1
  40   24   25 ar
  41   24   28 1
  42   25   40 1
  43   28   29 1
  44   29   41 1
  45   29   42 1
  46   29   43 1

#	End of record

