#	Name: ASD03430455
#	Creating user name:	WinNT
#	Creation time:	15. 06. 2019 20:41

#	Modifying user name:	WinNT
#	Modification time:	15. 06. 2019 20:41

#	Program:	/corina/corina34_cracker 3.40 0067  02.08.2006

@<TRIPOS>MOLECULE
ASD03430455
  52   56    0    0    0
SMALL
NO_CHARGES


@<TRIPOS>ATOM
   1 N1            -0.0161     1.3396     0.0094 N.am    
   2 C2             0.0021    -0.0041     0.0020 C.2     
   3 C3             1.4556    -0.4274    -0.0141 C.3     
   4 C4             2.2175     0.8778    -0.0144 C.ar    
   5 C5             3.5735     1.1767    -0.0261 C.ar    
   6 C6             3.9990     2.5108    -0.0235 C.ar    
   7 C7             3.0210     3.5258    -0.0091 C.ar    
   8 C8             1.6973     3.2171     0.0019 C.ar    
   9 C9             1.2698     1.8850     0.0001 C.ar    
  10 S10            5.0047     0.1507    -0.0454 S.3     
  11 C11            6.0193     1.5226    -0.0483 C.2     
  12 N12            5.3422     2.6076    -0.0361 N.2     
  13 O13           -0.9631    -0.7386     0.0073 O.2     
  14 C14           -1.2431     2.1401     0.0197 C.3     
  15 C15           -1.6628     2.4114     1.4658 C.3     
  16 C16           -2.9442     3.2474     1.4766 C.3     
  17 C17           -3.4327     3.4135     2.9170 C.3     
  18 C18           -2.6601     4.6241     0.8725 C.3     
  19 O19            2.6926    -3.4194     4.6060 O.3     
  20 C20            2.8247    -4.8368     4.4533 C.3     
  21 C21            3.6958    -5.1079     3.2192 C.3     
  22 O22            3.0498    -4.5305     2.0793 O.3     
  23 C23            2.5751    -3.2618     2.2221 C.ar    
  24 C24            2.3950    -2.7081     3.4843 C.ar    
  25 C25            2.2704    -2.5193     1.0916 C.ar    
  26 C26            1.7853    -1.2312     1.2172 C.ar    
  27 C27            1.6023    -0.6777     2.4753 C.ar    
  28 C28            1.9072    -1.4162     3.6085 C.ar    
  29 O29            1.1243     0.5894     2.5977 O.3     
  30 O30            1.7458    -1.1769    -1.1956 O.3     
  31 H31            3.3271     4.5615    -0.0064 H       
  32 H32            0.9654     4.0112     0.0132 H       
  33 H33            7.0984     1.4801    -0.0584 H       
  34 H34           -1.0637     3.0866    -0.4902 H       
  35 H35           -2.0363     1.5958    -0.4928 H       
  36 H36           -1.8422     1.4649     1.9758 H       
  37 H37           -0.8696     2.9557     1.9784 H       
  38 H38           -3.7115     2.7439     0.8885 H       
  39 H39           -2.6654     3.9170     3.5051 H       
  40 H40           -4.3456     4.0090     2.9247 H       
  41 H41           -3.6351     2.4327     3.3474 H       
  42 H42           -3.5730     5.2196     0.8802 H       
  43 H43           -1.8928     5.1276     1.4606 H       
  44 H44           -2.3121     4.5058    -0.1537 H       
  45 H45            3.2999    -5.2592     5.3386 H       
  46 H46            1.8408    -5.2848     4.3144 H       
  47 H47            4.6772    -4.6535     3.3549 H       
  48 H48            3.8045    -6.1828     3.0749 H       
  49 H49            2.4119    -2.9486     0.1107 H       
  50 H50            1.7643    -0.9851     4.5883 H       
  51 H51            0.1603     0.6427     2.6508 H       
  52 H52            1.2382    -1.9960    -1.2764 H       
@<TRIPOS>BOND
   1    1    2 am
   2    1    9 1
   3    1   14 1
   4    2    3 1
   5    2   13 2
   6    3    4 1
   7    3   26 1
   8    3   30 1
   9    4    5 ar
  10    4    9 ar
  11    5    6 ar
  12    5   10 1
  13    6    7 ar
  14    6   12 1
  15    7    8 ar
  16    7   31 1
  17    8    9 ar
  18    8   32 1
  19   10   11 1
  20   11   12 2
  21   11   33 1
  22   14   15 1
  23   14   34 1
  24   14   35 1
  25   15   16 1
  26   15   36 1
  27   15   37 1
  28   16   17 1
  29   16   18 1
  30   16   38 1
  31   17   39 1
  32   17   40 1
  33   17   41 1
  34   18   42 1
  35   18   43 1
  36   18   44 1
  37   19   20 1
  38   19   24 1
  39   20   21 1
  40   20   45 1
  41   20   46 1
  42   21   22 1
  43   21   47 1
  44   21   48 1
  45   22   23 1
  46   23   24 ar
  47   23   25 ar
  48   24   28 ar
  49   25   26 ar
  50   25   49 1
  51   26   27 ar
  52   27   28 ar
  53   27   29 1
  54   28   50 1
  55   29   51 1
  56   30   52 1

#	End of record

