#	Name: ASD01870248
#	Creating user name:	WinNT
#	Creation time:	15. 06. 2019 19:38

#	Modifying user name:	WinNT
#	Modification time:	15. 06. 2019 19:38

#	Program:	/corina/corina34_cracker 3.40 0067  02.08.2006

@<TRIPOS>MOLECULE
ASD01870248
  45   48    0    0    0
SMALL
NO_CHARGES


@<TRIPOS>ATOM
   1 C1            -0.2227     1.7918    -0.1272 C.ar    
   2 C2            -0.2397     0.4627     0.2535 C.ar    
   3 C3             0.9359    -0.1703     0.6031 C.ar    
   4 C4             2.1389     0.5262     0.5721 C.ar    
   5 C5             2.1536     1.8562     0.1856 C.ar    
   6 C6             0.9714     2.4862    -0.1613 C.ar    
   7 O7             3.2809    -0.1105     0.9261 O.3     
   8 C8             4.3672     0.6051     1.3041 C.ar    
   9 C9             4.5039     1.9368     0.9480 C.ar    
  10 C10            3.4435     2.6292     0.1355 C.3     
  11 C11            5.3555    -0.0110     2.0637 C.ar    
  12 C12            6.4707     0.7007     2.4575 C.ar    
  13 C13            6.6067     2.0286     2.0966 C.ar    
  14 C14            5.6258     2.6442     1.3426 C.ar    
  15 C15            3.9107     2.7391    -1.3172 C.3     
  16 C16            5.0544     3.7513    -1.4099 C.3     
  17 C17            6.3191     3.1307    -0.8749 C.2     
  18 N18            4.7199     4.9420    -0.6173 N.3     
  19 O19            7.2982     3.9120    -0.3927 O.3     
  20 O20            6.4517     1.9297    -0.8799 O.2     
  21 C21            5.2623     4.1534    -2.8714 C.3     
  22 C22            6.3690     5.1653    -3.1751 C.3     
  23 C23            4.9010     5.5863    -3.2681 C.3     
  24 C24            7.1284     4.9993    -4.4661 C.2     
  25 O25            8.1097     5.8587    -4.7829 O.3     
  26 O26            6.8541     4.0926    -5.2162 O.2     
  27 H27           -1.1426     2.2862    -0.4024 H       
  28 H28           -1.1731    -0.0802     0.2776 H       
  29 H29            0.9214    -1.2082     0.9016 H       
  30 H30            0.9820     3.5242    -0.4593 H       
  31 H31            3.2798     3.6301     0.5349 H       
  32 H32            5.2502    -1.0480     2.3465 H       
  33 H33            7.2370     0.2205     3.0479 H       
  34 H34            7.4801     2.5847     2.4036 H       
  35 H35            5.7346     3.6812     1.0614 H       
  36 H36            4.2586     1.7653    -1.6617 H       
  37 H37            3.0810     3.0703    -1.9417 H       
  38 H38            3.8393     5.3369    -0.9119 H       
  39 H39            4.7086     4.7285     0.3688 H       
  40 H40            8.0906     3.4683    -0.0605 H       
  41 H41            5.0837     3.3675    -3.6052 H       
  42 H42            6.9490     5.5444    -2.3337 H       
  43 H43            4.4845     5.7432    -4.2631 H       
  44 H44            4.5152     6.2424    -2.4879 H       
  45 H45            8.5683     5.7117    -5.6214 H       
@<TRIPOS>BOND
   1    1    2 ar
   2    1    6 ar
   3    1   27 1
   4    2    3 ar
   5    2   28 1
   6    3    4 ar
   7    3   29 1
   8    4    5 ar
   9    4    7 1
  10    5    6 ar
  11    5   10 1
  12    6   30 1
  13    7    8 1
  14    8    9 ar
  15    8   11 ar
  16    9   10 1
  17    9   14 ar
  18   10   15 1
  19   10   31 1
  20   11   12 ar
  21   11   32 1
  22   12   13 ar
  23   12   33 1
  24   13   14 ar
  25   13   34 1
  26   14   35 1
  27   15   16 1
  28   15   36 1
  29   15   37 1
  30   16   17 1
  31   16   18 1
  32   16   21 1
  33   17   19 1
  34   17   20 2
  35   18   38 1
  36   18   39 1
  37   19   40 1
  38   21   22 1
  39   21   23 1
  40   21   41 1
  41   22   23 1
  42   22   24 1
  43   22   42 1
  44   23   43 1
  45   23   44 1
  46   24   25 1
  47   24   26 2
  48   25   45 1

#	End of record

