#	Name: ASD08150508
#	Creating user name:	WinNT
#	Creation time:	15. 06. 2019 21:16

#	Modifying user name:	WinNT
#	Modification time:	15. 06. 2019 21:16

#	Program:	/corina/corina34_cracker 3.40 0067  02.08.2006

@<TRIPOS>MOLECULE
ASD08150508
  43   47    0    0    0
SMALL
NO_CHARGES


@<TRIPOS>ATOM
   1 N1            -0.1009     1.0783     1.9836 N.am    
   2 C2            -0.0031    -0.1790     2.4575 C.2     
   3 C3             1.2205    -0.8773     2.4097 C.2     
   4 C4             2.3234    -0.2875     1.8822 C.2     
   5 C5             2.2242     1.0351     1.3827 C.ar    
   6 C6             3.3376     1.6926     0.8250 C.ar    
   7 N7             3.2433     2.9126     0.3650 N.ar    
   8 C8             2.0939     3.6042     0.3953 C.ar    
   9 C9             0.9226     3.0211     0.9383 C.ar    
  10 C10            0.9912     1.7022     1.4450 C.ar    
  11 C11           -0.2926     5.0401     0.4606 C.ar    
  12 C12            0.8698     5.6100    -0.0760 C.ar    
  13 C13            2.0375     4.9134    -0.1097 C.ar    
  14 O14           -0.9860    -0.7200     2.9346 O.2     
  15 C15           -1.3293     1.7486     2.0374 C.ar    
  16 C16           -2.2335     1.6280     0.9906 C.ar    
  17 C17           -3.4446     2.2896     1.0457 C.ar    
  18 C18           -3.7574     3.0728     2.1440 C.ar    
  19 C19           -2.8568     3.1944     3.1893 C.ar    
  20 C20           -1.6471     2.5305     3.1405 C.ar    
  21 C21           -0.2700     3.7510     0.9660 C.ar    
  22 C22           -1.5545     5.8215     0.4862 C.2     
  23 F23           -4.9424     3.7194     2.1959 F       
  24 C24           -1.6680     7.1628     0.7102 C.2     
  25 N25           -2.9778     7.4770     0.6492 N.pl3   
  26 N26           -3.6968     6.3059     0.3813 N.2     
  27 C27           -2.8520     5.3144     0.2775 C.2     
  28 C28           -1.8934     0.7761    -0.2052 C.3     
  29 H29            1.2807    -1.8847     2.7943 H       
  30 H30            3.2632    -0.8184     1.8441 H       
  31 H31            4.2868     1.1796     0.7768 H       
  32 H32            0.8378     6.6157    -0.4683 H       
  33 H33            2.9242     5.3686    -0.5258 H       
  34 H34           -4.1481     2.1963     0.2316 H       
  35 H35           -3.1025     3.8061     4.0448 H       
  36 H36           -0.9452     2.6256     3.9557 H       
  37 H37           -1.1668     3.3124     1.3782 H       
  38 H38           -0.8558     7.8484     0.9017 H       
  39 H39           -3.3566     8.3617     0.7704 H       
  40 H40           -3.1050     4.2844     0.0740 H       
  41 H41           -2.2354    -0.2444    -0.0333 H       
  42 H42           -2.3849     1.1798    -1.0904 H       
  43 H43           -0.8140     0.7770    -0.3567 H       
@<TRIPOS>BOND
   1    1    2 am
   2    1   10 1
   3    1   15 1
   4    2    3 1
   5    2   14 2
   6    3    4 2
   7    3   29 1
   8    4    5 1
   9    4   30 1
  10    5    6 ar
  11    5   10 ar
  12    6    7 ar
  13    6   31 1
  14    7    8 ar
  15    8    9 ar
  16    8   13 ar
  17    9   10 ar
  18    9   21 ar
  19   11   12 ar
  20   11   22 1
  21   11   21 ar
  22   12   13 ar
  23   12   32 1
  24   13   33 1
  25   15   16 ar
  26   15   20 ar
  27   16   17 ar
  28   16   28 1
  29   17   18 ar
  30   17   34 1
  31   18   19 ar
  32   18   23 1
  33   19   20 ar
  34   19   35 1
  35   20   36 1
  36   21   37 1
  37   22   24 2
  38   22   27 1
  39   24   25 1
  40   24   38 1
  41   25   26 1
  42   25   39 1
  43   26   27 2
  44   27   40 1
  45   28   41 1
  46   28   42 1
  47   28   43 1

#	End of record

