#	Name: ASD01908100
#	Creating user name:	WinNT
#	Creation time:	15. 06. 2019 19:54

#	Modifying user name:	WinNT
#	Modification time:	15. 06. 2019 19:54

#	Program:	/corina/corina34_cracker 3.40 0067  02.08.2006

@<TRIPOS>MOLECULE
ASD01908100
  46   49    0    0    0
SMALL
NO_CHARGES


@<TRIPOS>ATOM
   1 S1            -0.0242     1.7576    -0.0304 S.3     
   2 C2             0.0013    -0.0032    -0.0100 C.2     
   3 N3             1.2320    -0.4152    -0.0147 N.2     
   4 C4             2.1768     0.5142    -0.0329 C.2     
   5 C5             1.7377     1.7833    -0.0444 C.2     
   6 N6            -1.1185    -0.8216     0.0090 N.pl3   
   7 C7            -2.3869    -0.2623     0.1294 C.ar    
   8 C8            -3.5112    -1.0759     0.0312 C.ar    
   9 C9            -4.7659    -0.5069     0.1532 C.ar    
  10 C10           -4.8546     0.8620     0.3703 C.ar    
  11 C11           -3.6971     1.6092     0.4573 C.ar    
  12 N12           -2.5130     1.0385     0.3420 N.ar    
  13 N13            5.5003    -0.9525    -0.0416 N.pl3   
  14 N14            5.8094     0.4130    -0.0588 N.2     
  15 C15            4.6922     1.0914    -0.0577 C.2     
  16 C16            3.6232     0.1752    -0.0397 C.2     
  17 C17            4.1564    -1.0799    -0.0301 C.2     
  18 C18            3.3852    -2.3745    -0.0106 C.3     
  19 F19            3.1566    -2.7612     1.3143 F       
  20 F20            2.1602    -2.1974    -0.6627 F       
  21 F21            4.1229    -3.3667    -0.6653 F       
  22 C22            6.4677    -2.0526    -0.0424 C.3     
  23 C23            6.8161    -2.4162     1.3780 C.ar    
  24 C24            6.0761    -3.3739     2.0466 C.ar    
  25 C25            6.3934    -3.7089     3.3487 C.ar    
  26 C26            7.4556    -3.0837     3.9854 C.ar    
  27 C27            8.1966    -2.1231     3.3124 C.ar    
  28 C28            7.8787    -1.7957     2.0085 C.ar    
  29 O29            7.7695    -3.4112     5.2665 O.3     
  30 C30            8.8755    -2.7270     5.8587 C.3     
  31 H31            2.3577     2.6675    -0.0599 H       
  32 H32           -1.0174    -1.7837    -0.0616 H       
  33 H33           -3.4057    -2.1372    -0.1385 H       
  34 H34           -5.6566    -1.1133     0.0810 H       
  35 H35           -5.8194     1.3372     0.4697 H       
  36 H36           -3.7615     2.6740     0.6257 H       
  37 H37            4.6043     2.1678    -0.0685 H       
  38 H38            6.0334    -2.9181    -0.5429 H       
  39 H39            7.3699    -1.7427    -0.5698 H       
  40 H40            5.2490    -3.8601     1.5506 H       
  41 H41            5.8149    -4.4568     3.8707 H       
  42 H42            9.0239    -1.6349     3.8059 H       
  43 H43            8.4582    -1.0514     1.4825 H       
  44 H44            9.7767    -2.9218     5.2774 H       
  45 H45            8.6755    -1.6556     5.8709 H       
  46 H46            9.0178    -3.0818     6.8795 H       
@<TRIPOS>BOND
   1    1    2 1
   2    1    5 1
   3    2    3 2
   4    2    6 1
   5    3    4 1
   6    4    5 2
   7    4   16 1
   8    5   31 1
   9    6    7 1
  10    6   32 1
  11    7    8 ar
  12    7   12 ar
  13    8    9 ar
  14    8   33 1
  15    9   10 ar
  16    9   34 1
  17   10   11 ar
  18   10   35 1
  19   11   12 ar
  20   11   36 1
  21   13   14 1
  22   13   17 1
  23   13   22 1
  24   14   15 2
  25   15   16 1
  26   15   37 1
  27   16   17 2
  28   17   18 1
  29   18   19 1
  30   18   20 1
  31   18   21 1
  32   22   23 1
  33   22   38 1
  34   22   39 1
  35   23   24 ar
  36   23   28 ar
  37   24   25 ar
  38   24   40 1
  39   25   26 ar
  40   25   41 1
  41   26   27 ar
  42   26   29 1
  43   27   28 ar
  44   27   42 1
  45   28   43 1
  46   29   30 1
  47   30   44 1
  48   30   45 1
  49   30   46 1

#	End of record

