#	Name: ASD03731569
#	Creating user name:	WinNT
#	Creation time:	15. 06. 2019 20:46

#	Modifying user name:	WinNT
#	Modification time:	15. 06. 2019 20:46

#	Program:	/corina/corina34_cracker 3.40 0067  02.08.2006

@<TRIPOS>MOLECULE
ASD03731569
  37   38    0    0    0
SMALL
NO_CHARGES


@<TRIPOS>ATOM
   1 C1             0.7581     1.4154    -0.4020 C.2     
   2 C2             0.5737    -0.0456    -0.3015 C.ar    
   3 C3             1.5327    -0.9110    -0.8346 C.ar    
   4 C4             1.3573    -2.2733    -0.7385 C.ar    
   5 C5             0.2278    -2.7882    -0.1126 C.ar    
   6 C6            -0.7285    -1.9305     0.4190 C.ar    
   7 C7            -0.5575    -0.5670     0.3319 C.ar    
   8 O8             1.7454     1.8673    -0.9490 O.2     
   9 N9            -0.1706     2.2485     0.1078 N.am    
  10 O10            0.0581    -4.1313    -0.0206 O.3     
  11 C11            0.5843    -4.7685     1.0581 C.ar    
  12 C12            1.1754    -4.0360     2.0766 C.ar    
  13 C13            1.7113    -4.6890     3.1756 C.ar    
  14 C14            1.6552    -6.0736     3.2542 C.ar    
  15 C15            1.0662    -6.8011     2.2380 C.ar    
  16 C16            0.5257    -6.1523     1.1442 C.ar    
  17 O17            2.2916    -3.9740     4.1750 O.3     
  18 C18            2.8229    -4.7126     5.2769 C.3     
  19 F19            3.8126    -5.5882     4.8175 F       
  20 F20            3.3785    -3.8275     6.2070 F       
  21 F21            1.7979    -5.4452     5.8850 F       
  22 S22            0.0363     3.8876    -0.0048 S.o2    
  23 O23           -1.1025     4.4303     0.6494 O.2     
  24 O24            1.3462     4.1109     0.4987 O.2     
  25 C25           -0.0285     4.2307    -1.7849 C.3     
  26 H26            2.4101    -0.5118    -1.3216 H       
  27 H27            2.0981    -2.9428    -1.1502 H       
  28 H28           -1.6047    -2.3342     0.9045 H       
  29 H29           -1.2987     0.0987     0.7491 H       
  30 H30           -0.9602     1.8879     0.5407 H       
  31 H31            1.2184    -2.9587     2.0135 H       
  32 H32            2.0726    -6.5827     4.1103 H       
  33 H33            1.0242    -7.8785     2.3008 H       
  34 H34            0.0615    -6.7229     0.3534 H       
  35 H35           -0.9934     3.9142    -2.1811 H       
  36 H36            0.1005     5.2998    -1.9538 H       
  37 H37            0.7683     3.6844    -2.2895 H       
@<TRIPOS>BOND
   1    1    2 1
   2    1    8 2
   3    1    9 am
   4    2    3 ar
   5    2    7 ar
   6    3    4 ar
   7    3   26 1
   8    4    5 ar
   9    4   27 1
  10    5    6 ar
  11    5   10 1
  12    6    7 ar
  13    6   28 1
  14    7   29 1
  15    9   22 am
  16    9   30 1
  17   10   11 1
  18   11   12 ar
  19   11   16 ar
  20   12   13 ar
  21   12   31 1
  22   13   14 ar
  23   13   17 1
  24   14   15 ar
  25   14   32 1
  26   15   16 ar
  27   15   33 1
  28   16   34 1
  29   17   18 1
  30   18   19 1
  31   18   20 1
  32   18   21 1
  33   22   23 2
  34   22   24 2
  35   22   25 1
  36   25   35 1
  37   25   36 1
  38   25   37 1

#	End of record

