#	Name: ASD01917028
#	Creating user name:	WinNT
#	Creation time:	15. 06. 2019 20:08

#	Modifying user name:	WinNT
#	Modification time:	15. 06. 2019 20:08

#	Program:	/corina/corina34_cracker 3.40 0067  02.08.2006

@<TRIPOS>MOLECULE
ASD01917028
  30   31    0    0    0
SMALL
NO_CHARGES


@<TRIPOS>ATOM
   1 C1            -0.0184     1.5028     0.0103 C.3     
   2 C2             0.0021    -0.0041     0.0020 C.2     
   3 N3             0.6120    -0.7565    -0.8753 N.2     
   4 C4             0.4195    -2.0483    -0.5766 C.2     
   5 N5            -0.3233    -2.1245     0.5059 N.2     
   6 N6            -0.5995    -0.8051     0.8997 N.pl3   
   7 C7             0.9552    -3.2019    -1.3410 C.ar    
   8 C8             1.7327    -2.9869    -2.4769 C.ar    
   9 C9             1.4170     2.0324    -0.0006 C.3     
  10 C10            0.6868    -4.5035    -0.9213 C.ar    
  11 C11            1.1867    -5.5731    -1.6349 C.ar    
  12 C12            1.9548    -5.3548    -2.7673 C.ar    
  13 C13            2.2289    -4.0626    -3.1847 C.ar    
  14 C14            0.8975    -6.9810    -1.1818 C.3     
  15 C15            1.3963     3.5622     0.0079 C.3     
  16 F16            2.4429    -6.4051    -3.4629 F       
  17 H17           -0.5455     1.8639    -0.8728 H       
  18 H18           -0.5286     1.8543     0.9071 H       
  19 H19           -1.1258    -0.5262     1.6653 H       
  20 H20            1.9465    -1.9798    -2.8031 H       
  21 H21            1.9442     1.6713     0.8825 H       
  22 H22            1.9272     1.6808    -0.8974 H       
  23 H23            0.0885    -4.6745    -0.0386 H       
  24 H24            2.8276    -3.8969    -4.0681 H       
  25 H25           -0.0218    -7.3319    -1.6506 H       
  26 H26            1.7232    -7.6319    -1.4690 H       
  27 H27            0.7819    -6.9974    -0.0980 H       
  28 H28            0.8691     3.9233    -0.8752 H       
  29 H29            0.8861     3.9137     0.9047 H       
  30 H30            2.4189     3.9395     0.0001 H       
@<TRIPOS>BOND
   1    1    2 1
   2    1    9 1
   3    1   17 1
   4    1   18 1
   5    2    3 2
   6    2    6 1
   7    3    4 1
   8    4    5 2
   9    4    7 1
  10    5    6 1
  11    6   19 1
  12    7    8 ar
  13    7   10 ar
  14    8   13 ar
  15    8   20 1
  16    9   15 1
  17    9   21 1
  18    9   22 1
  19   10   11 ar
  20   10   23 1
  21   11   12 ar
  22   11   14 1
  23   12   13 ar
  24   12   16 1
  25   13   24 1
  26   14   25 1
  27   14   26 1
  28   14   27 1
  29   15   28 1
  30   15   29 1
  31   15   30 1

#	End of record

