#	Name: ASD03731577
#	Creating user name:	WinNT
#	Creation time:	15. 06. 2019 20:46

#	Modifying user name:	WinNT
#	Modification time:	15. 06. 2019 20:46

#	Program:	/corina/corina34_cracker 3.40 0067  02.08.2006

@<TRIPOS>MOLECULE
ASD03731577
  33   34    0    0    0
SMALL
NO_CHARGES


@<TRIPOS>ATOM
   1 C1             0.7598     1.4151    -0.4030 C.2     
   2 C2             0.5750    -0.0458    -0.3023 C.ar    
   3 C3             1.5338    -0.9116    -0.8351 C.ar    
   4 C4             1.3580    -2.2739    -0.7387 C.ar    
   5 C5             0.2282    -2.7882    -0.1128 C.ar    
   6 C6            -0.7279    -1.9301     0.4185 C.ar    
   7 C7            -0.5565    -0.5667     0.3312 C.ar    
   8 O8             1.7473     1.8666    -0.9500 O.2     
   9 N9            -0.1687     2.2485     0.1066 N.am    
  10 S10            0.0387     3.8876    -0.0064 S.o2    
  11 O11           -1.0999     4.4308     0.6476 O.2     
  12 O12            1.3486     4.1106     0.4972 O.2     
  13 C13           -0.0258     4.2304    -1.7865 C.3     
  14 O14            0.0581    -4.1313    -0.0206 O.3     
  15 C15            0.5845    -4.7686     1.0584 C.ar    
  16 C16            0.5362    -6.1541     1.1396 C.ar    
  17 C17            1.0726    -6.7997     2.2376 C.ar    
  18 C18            1.6572    -6.0662     3.2551 C.ar    
  19 C19            1.7056    -4.6859     3.1758 C.ar    
  20 C20            1.1757    -4.0366     2.0772 C.ar    
  21 Cl21           2.3303    -6.8793     4.6333 Cl      
  22 Cl22          -0.1977    -7.0742    -0.1366 Cl      
  23 H23            2.4114    -0.5128    -1.3221 H       
  24 H24            2.0986    -2.9436    -1.1503 H       
  25 H25           -1.6043    -2.3335     0.9040 H       
  26 H26           -1.2975     0.0992     0.7481 H       
  27 H27           -0.9585     1.8883     0.5395 H       
  28 H28           -0.9908     3.9140    -2.1827 H       
  29 H29            0.1036     5.2994    -1.9556 H       
  30 H30            0.7709     3.6837    -2.2909 H       
  31 H31            1.0351    -7.8772     2.3017 H       
  32 H32            2.1617    -4.1155     3.9715 H       
  33 H33            1.2178    -2.9592     2.0141 H       
@<TRIPOS>BOND
   1    1    2 1
   2    1    8 2
   3    1    9 am
   4    2    3 ar
   5    2    7 ar
   6    3    4 ar
   7    3   23 1
   8    4    5 ar
   9    4   24 1
  10    5    6 ar
  11    5   14 1
  12    6    7 ar
  13    6   25 1
  14    7   26 1
  15    9   10 am
  16    9   27 1
  17   10   11 2
  18   10   12 2
  19   10   13 1
  20   13   28 1
  21   13   29 1
  22   13   30 1
  23   14   15 1
  24   15   16 ar
  25   15   20 ar
  26   16   17 ar
  27   16   22 1
  28   17   18 ar
  29   17   31 1
  30   18   19 ar
  31   18   21 1
  32   19   20 ar
  33   19   32 1
  34   20   33 1

#	End of record

