#	Name: ASD02039353
#	Creating user name:	WinNT
#	Creation time:	15. 06. 2019 20:18

#	Modifying user name:	WinNT
#	Modification time:	15. 06. 2019 20:18

#	Program:	/corina/corina34_cracker 3.40 0067  02.08.2006

@<TRIPOS>MOLECULE
ASD02039353
  51   53    0    0    0
SMALL
NO_CHARGES


@<TRIPOS>ATOM
   1 C1             0.1357     1.1850    -0.3164 C.ar    
   2 C2             0.5176    -0.0930     0.0499 C.ar    
   3 C3            -0.3865    -1.1372    -0.0180 C.ar    
   4 C4            -2.0715     0.3820    -0.8129 C.ar    
   5 C5            -1.1530     1.4275    -0.7471 C.ar    
   6 C6            -3.4579     0.6367    -1.2750 C.ar    
   7 C7             1.1277     2.3169    -0.2392 C.3     
   8 N8             1.9438     2.3348    -1.4557 N.am    
   9 C9             1.4502     3.0090    -2.6591 C.3     
  10 C10            3.1487     1.7310    -1.4678 C.2     
  11 C11            3.6003     0.9645    -0.2936 C.2     
  12 C12            4.7332     0.2089    -0.2108 C.2     
  13 N13            2.9680     0.8860     0.9052 N.2     
  14 C14            3.6608     0.1197     1.6972 C.2     
  15 N15            4.7637    -0.3182     1.0358 N.pl3   
  16 O16            3.8632     1.8190    -2.4482 O.2     
  17 C17            5.7998    -1.2027     1.5746 C.3     
  18 C18           -4.2167     1.6784    -0.7295 C.ar    
  19 C19            2.4332     4.1082    -3.0673 C.3     
  20 C20            1.3202     1.9932    -3.7958 C.3     
  21 C21           -1.6787    -0.9082    -0.4527 C.ar    
  22 F22           -2.5618    -1.9284    -0.5195 F       
  23 C23           -4.0377    -0.1523    -2.2691 C.ar    
  24 C24           -5.3364     0.1211    -2.6714 C.ar    
  25 N25           -6.0192     1.1135    -2.1244 N.ar    
  26 C26           -5.5009     1.8835    -1.1855 C.ar    
  27 O27           -5.9132    -0.6374    -3.6374 O.3     
  28 C28           -7.2528    -0.3065    -4.0087 C.3     
  29 H29            1.5261    -0.2762     0.3900 H       
  30 H30           -0.0825    -2.1331     0.2686 H       
  31 H31           -1.4514     2.4277    -1.0242 H       
  32 H32            0.5935     3.2624    -0.1461 H       
  33 H33            1.7721     2.1766     0.6286 H       
  34 H34            0.4754     3.4513    -2.4537 H       
  35 H35            5.4654     0.0596    -0.9906 H       
  36 H36            3.4022    -0.1259     2.7166 H       
  37 H37            5.5317    -2.2402     1.3749 H       
  38 H38            6.7542    -0.9761     1.0993 H       
  39 H39            5.8844    -1.0500     2.6505 H       
  40 H40           -3.8014     2.3132     0.0392 H       
  41 H41            3.4238     3.6758    -3.2078 H       
  42 H42            2.1006     4.5651    -3.9993 H       
  43 H43            2.4753     4.8666    -2.2856 H       
  44 H44            0.5859     1.2351    -3.5233 H       
  45 H45            0.9966     2.5029    -4.7033 H       
  46 H46            2.2854     1.5179    -3.9705 H       
  47 H47           -3.4835    -0.9631    -2.7184 H       
  48 H48           -6.0935     2.6827    -0.7654 H       
  49 H49           -7.9035    -0.3956    -3.1388 H       
  50 H50           -7.2840     0.7169    -4.3824 H       
  51 H51           -7.5928    -0.9884    -4.7882 H       
@<TRIPOS>BOND
   1    1    2 ar
   2    1    7 1
   3    1    5 ar
   4    2    3 ar
   5    2   29 1
   6    3   21 ar
   7    3   30 1
   8    4    5 ar
   9    4    6 1
  10    4   21 ar
  11    5   31 1
  12    6   18 ar
  13    6   23 ar
  14    7    8 1
  15    7   32 1
  16    7   33 1
  17    8    9 1
  18    8   10 am
  19    9   20 1
  20    9   19 1
  21    9   34 1
  22   10   11 1
  23   10   16 2
  24   11   12 2
  25   11   13 1
  26   12   15 1
  27   12   35 1
  28   13   14 2
  29   14   15 1
  30   14   36 1
  31   15   17 1
  32   17   37 1
  33   17   38 1
  34   17   39 1
  35   18   26 ar
  36   18   40 1
  37   19   41 1
  38   19   42 1
  39   19   43 1
  40   20   44 1
  41   20   45 1
  42   20   46 1
  43   21   22 1
  44   23   24 ar
  45   23   47 1
  46   24   25 ar
  47   24   27 1
  48   25   26 ar
  49   26   48 1
  50   27   28 1
  51   28   49 1
  52   28   50 1
  53   28   51 1

#	End of record

