#	Name: ASD01028052
#	Creating user name:	WinNT
#	Creation time:	15. 06. 2019 18:56

#	Modifying user name:	WinNT
#	Modification time:	15. 06. 2019 18:56

#	Program:	/corina/corina34_cracker 3.40 0067  02.08.2006

@<TRIPOS>MOLECULE
ASD01028052
  70   75    0    0    0
SMALL
NO_CHARGES


@<TRIPOS>ATOM
   1 C1            -0.3187     1.9634    -0.0374 C.3     
   2 C2            -0.2211     0.4835     0.3350 C.3     
   3 C3             1.0659     2.6049     0.0335 C.3     
   4 N4             3.2978     3.8141    -2.7819 N.am    
   5 N5             1.6637     0.6319    -4.1562 N.pl3   
   6 C6             2.7490     1.0847    -4.9428 C.ar    
   7 C7             3.1302     2.4118    -4.7693 C.ar    
   8 C8             2.3664     3.2829    -3.8092 C.3     
   9 C9             3.4224     0.2745    -5.8431 C.ar    
  10 C10            4.4945     0.7975    -6.5593 C.ar    
  11 C11            4.8788     2.1183    -6.3691 C.ar    
  12 C12            4.1983     2.9225    -5.4775 C.ar    
  13 C13           -0.9418    -1.0072    -1.3663 C.ar    
  14 C14           -0.0523    -0.4739    -2.2603 C.ar    
  15 C15            0.3334    -1.2158    -3.3804 C.ar    
  16 C16            1.2499    -0.6916    -4.3296 C.ar    
  17 N17            1.6412    -1.4635    -5.3219 N.ar    
  18 O18            3.2496    -1.0263    -6.2029 O.3     
  19 C19            4.2067    -1.3326    -7.2216 C.3     
  20 O20            5.0066    -0.1580    -7.3812 O.3     
  21 C21           -1.4797    -2.2841    -1.5734 C.ar    
  22 C22           -1.1143    -3.0316    -2.6764 C.ar    
  23 C23           -0.1838    -2.5170    -3.5868 C.ar    
  24 N24            0.2636    -3.2106    -4.6459 N.ar    
  25 C25            1.1532    -2.6911    -5.4608 C.ar    
  26 O26           -2.3688    -2.7924    -0.6809 O.3     
  27 C27            2.9238     3.4922    -1.3808 C.3     
  28 O28           -1.2760    -0.2602    -0.2791 O.3     
  29 C29            1.4148     3.2550    -1.3067 C.3     
  30 C30           -2.8811    -4.0994    -0.9481 C.3     
  31 C31            4.3953     4.5307    -3.0958 C.2     
  32 O32            5.3301     4.7757    -2.1583 O.3     
  33 O33            4.5410     4.9557    -4.2248 O.2     
  34 C34            6.4856     5.5541    -2.5673 C.3     
  35 C35            7.4164     5.7255    -1.3946 C.ar    
  36 C36            8.4137     4.7969    -1.1623 C.ar    
  37 C37            9.2675     4.9541    -0.0866 C.ar    
  38 C38            9.1244     6.0401     0.7566 C.ar    
  39 C39            8.1276     6.9692     0.5237 C.ar    
  40 C40            7.2766     6.8143    -0.5545 C.ar    
  41 H41           -0.7104     2.0574    -1.0502 H       
  42 H42           -0.9886     2.4689     0.6582 H       
  43 H43            0.7385     0.0908    -0.0014 H       
  44 H44           -0.2915     0.3800     1.4178 H       
  45 H45            1.0728     3.3639     0.8158 H       
  46 H46            1.8067     1.8405     0.2681 H       
  47 H47            1.2239     1.2177    -3.5204 H       
  48 H48            1.5874     2.6943    -3.3246 H       
  49 H49            1.9123     4.1118    -4.3521 H       
  50 H50            5.7152     2.5188    -6.9225 H       
  51 H51            4.5014     3.9491    -5.3343 H       
  52 H52            0.3493     0.5159    -2.1008 H       
  53 H53            4.8297    -2.1713    -6.9109 H       
  54 H54            3.6974    -1.5692    -8.1557 H       
  55 H55           -1.5446    -4.0094    -2.8354 H       
  56 H56            1.5058    -3.2925    -6.2856 H       
  57 H57            3.4502     2.5930    -1.0606 H       
  58 H58            3.1941     4.3246    -0.7311 H       
  59 H59            1.1102     2.5964    -2.1202 H       
  60 H60            0.8925     4.2075    -1.3955 H       
  61 H61           -3.3978    -4.0979    -1.9078 H       
  62 H62           -2.0576    -4.8129    -0.9799 H       
  63 H63           -3.5784    -4.3844    -0.1603 H       
  64 H64            7.0067     5.0355    -3.3720 H       
  65 H65            6.1587     6.5331    -2.9178 H       
  66 H66            8.5256     3.9483    -1.8210 H       
  67 H67           10.0462     4.2282     0.0954 H       
  68 H68            9.7910     6.1625     1.5974 H       
  69 H69            8.0156     7.8176     1.1826 H       
  70 H70            6.4979     7.5402    -0.7365 H       
@<TRIPOS>BOND
   1    1    2 1
   2    1    3 1
   3    1   41 1
   4    1   42 1
   5    2   28 1
   6    2   43 1
   7    2   44 1
   8    3   29 1
   9    3   45 1
  10    3   46 1
  11    4   27 1
  12    4   31 am
  13    4    8 1
  14    5    6 1
  15    5   16 1
  16    5   47 1
  17    6    7 ar
  18    6    9 ar
  19    7    8 1
  20    7   12 ar
  21    8   48 1
  22    8   49 1
  23    9   10 ar
  24    9   18 1
  25   10   11 ar
  26   10   20 1
  27   11   12 ar
  28   11   50 1
  29   12   51 1
  30   13   14 ar
  31   13   21 ar
  32   13   28 1
  33   14   15 ar
  34   14   52 1
  35   15   16 ar
  36   15   23 ar
  37   16   17 ar
  38   17   25 ar
  39   18   19 1
  40   19   20 1
  41   19   53 1
  42   19   54 1
  43   21   22 ar
  44   21   26 1
  45   22   23 ar
  46   22   55 1
  47   23   24 ar
  48   24   25 ar
  49   25   56 1
  50   26   30 1
  51   27   29 1
  52   27   57 1
  53   27   58 1
  54   29   59 1
  55   29   60 1
  56   30   61 1
  57   30   62 1
  58   30   63 1
  59   31   32 1
  60   31   33 2
  61   32   34 1
  62   34   35 1
  63   34   64 1
  64   34   65 1
  65   35   36 ar
  66   35   40 ar
  67   36   37 ar
  68   36   66 1
  69   37   38 ar
  70   37   67 1
  71   38   39 ar
  72   38   68 1
  73   39   40 ar
  74   39   69 1
  75   40   70 1

#	End of record

