#	Name: ASD01812253
#	Creating user name:	WinNT
#	Creation time:	15. 06. 2019 19:28

#	Modifying user name:	WinNT
#	Modification time:	15. 06. 2019 19:28

#	Program:	/corina/corina34_cracker 3.40 0067  02.08.2006

@<TRIPOS>MOLECULE
ASD01812253
  62   66    0    0    0
SMALL
NO_CHARGES


@<TRIPOS>ATOM
   1 C1             0.8800     0.3118     1.9989 C.ar    
   2 C2             1.1177    -1.0116     2.3660 C.ar    
   3 C3             2.3994    -1.4769     2.4464 C.ar    
   4 C4             3.4497    -0.5881     2.1508 C.ar    
   5 C5             3.1373     0.7459     1.7837 C.ar    
   6 N6             1.8600     1.1371     1.7242 N.ar    
   7 C7             4.7924    -0.9984     2.2136 C.ar    
   8 C8             5.7882    -0.1223     1.9247 C.ar    
   9 C9             5.4971     1.2059     1.5584 C.ar    
  10 C10            4.1809     1.6324     1.4890 C.ar    
  11 C11            5.1276    -2.4151     2.6034 C.3     
  12 C12            6.3719     2.3411     1.2006 C.2     
  13 N13            5.6335     3.4287     0.9206 N.am    
  14 C14            4.2161     3.0821     1.0753 C.3     
  15 O15            7.5862     2.2979     1.1649 O.2     
  16 C16            6.1322     4.6800     0.5451 C.ar    
  17 C17            7.5014     4.8776     0.4343 C.ar    
  18 C18            7.9918     6.1193     0.0614 C.ar    
  19 C19            7.1136     7.1613    -0.2001 C.ar    
  20 C20            5.7503     6.9628    -0.0893 C.ar    
  21 C21            5.2573     5.7256     0.2769 C.ar    
  22 N22            4.9495    -3.2975     1.4425 N.3     
  23 C23            5.4889    -4.6365     1.7116 C.3     
  24 C24            5.1576    -5.5660     0.5419 C.3     
  25 C25            5.7672    -4.9986    -0.7430 C.3     
  26 C26            5.2261    -3.5850    -0.9744 C.3     
  27 C27            5.5554    -2.7129     0.2393 C.3     
  28 F28            7.1599    -4.9529    -0.6192 F       
  29 O29            9.3324     6.3162    -0.0476 O.3     
  30 C30            9.9366     5.8172    -1.1429 C.2     
  31 N31           11.2774     5.8848    -1.2627 N.am    
  32 O32            9.2730     5.3059    -2.0232 O.2     
  33 C33           11.9346     5.3419    -2.4542 C.3     
  34 C34           12.0775     6.5011    -0.2015 C.3     
  35 C35            5.4025    -5.8574    -1.8815 C.1     
  36 N36            5.1210    -6.5202    -2.7602 N.1     
  37 H37           -0.1386     0.6650     1.9350 H       
  38 H38            0.2893    -1.6684     2.5869 H       
  39 H39            2.6014    -2.4994     2.7296 H       
  40 H40            6.8166    -0.4479     1.9768 H       
  41 H41            6.1627    -2.4637     2.9413 H       
  42 H42            4.4670    -2.7363     3.4087 H       
  43 H43            3.6923     3.2145     0.1286 H       
  44 H44            3.7603     3.7031     1.8465 H       
  45 H45            8.1835     4.0656     0.6385 H       
  46 H46            7.4959     8.1287    -0.4903 H       
  47 H47            5.0690     7.7756    -0.2931 H       
  48 H48            4.1916     5.5731     0.3627 H       
  49 H49            6.5705    -4.5750     1.8315 H       
  50 H50            5.0442    -5.0302     2.6256 H       
  51 H51            5.5716    -6.5556     0.7349 H       
  52 H52            4.0758    -5.6388     0.4301 H       
  53 H53            5.6890    -3.1593    -1.8647 H       
  54 H54            4.1454    -3.6267    -1.1100 H       
  55 H55            5.1590    -1.7095     0.0839 H       
  56 H56            6.6367    -2.6604     0.3661 H       
  57 H57           12.0101     6.1200    -3.2138 H       
  58 H58           12.9332     4.9929    -2.1911 H       
  59 H59           11.3496     4.5090    -2.8442 H       
  60 H60           12.3634     5.7413     0.5258 H       
  61 H61           12.9738     6.9457    -0.6339 H       
  62 H62           11.4905     7.2749     0.2932 H       
@<TRIPOS>BOND
   1    1    2 ar
   2    1    6 ar
   3    1   37 1
   4    2    3 ar
   5    2   38 1
   6    3    4 ar
   7    3   39 1
   8    4    5 ar
   9    4    7 ar
  10    5    6 ar
  11    5   10 ar
  12    7    8 ar
  13    7   11 1
  14    8    9 ar
  15    8   40 1
  16    9   10 ar
  17    9   12 1
  18   10   14 1
  19   11   22 1
  20   11   41 1
  21   11   42 1
  22   12   13 am
  23   12   15 2
  24   13   14 1
  25   13   16 1
  26   14   43 1
  27   14   44 1
  28   16   17 ar
  29   16   21 ar
  30   17   18 ar
  31   17   45 1
  32   18   19 ar
  33   18   29 1
  34   19   20 ar
  35   19   46 1
  36   20   21 ar
  37   20   47 1
  38   21   48 1
  39   22   23 1
  40   22   27 1
  41   23   24 1
  42   23   49 1
  43   23   50 1
  44   24   25 1
  45   24   51 1
  46   24   52 1
  47   25   35 1
  48   25   26 1
  49   25   28 1
  50   26   27 1
  51   26   53 1
  52   26   54 1
  53   27   55 1
  54   27   56 1
  55   29   30 1
  56   30   31 am
  57   30   32 2
  58   31   33 1
  59   31   34 1
  60   33   57 1
  61   33   58 1
  62   33   59 1
  63   34   60 1
  64   34   61 1
  65   34   62 1
  66   35   36 3

#	End of record

