#	Name: ASD04550012
#	Creating user name:	WinNT
#	Creation time:	15. 06. 2019 20:49

#	Modifying user name:	WinNT
#	Modification time:	15. 06. 2019 20:49

#	Program:	/corina/corina34_cracker 3.40 0067  02.08.2006

@<TRIPOS>MOLECULE
ASD04550012
  40   41    0    0    0
SMALL
NO_CHARGES


@<TRIPOS>ATOM
   1 C1            -0.0167     1.3781     0.0096 C.ar    
   2 C2             0.0021    -0.0041     0.0020 C.ar    
   3 C3             1.2084    -0.6789    -0.0132 C.ar    
   4 C4             2.3960     0.0285    -0.0212 C.ar    
   5 C5             2.3773     1.4107    -0.0145 C.ar    
   6 C6             1.1710     2.0855     0.0021 C.ar    
   7 C7            -1.2926    -0.7753     0.0108 C.3     
   8 C8             3.6720     2.1819    -0.0228 C.3     
   9 C9             3.7296     3.0684    -1.2685 C.3     
  10 C10           -1.7452    -1.0285    -1.4286 C.3     
  11 C11           -2.9909    -1.9168    -1.4228 C.3     
  12 C12           -3.4434    -2.1701    -2.8623 C.3     
  13 C13           -3.7714    -0.8361    -3.5359 C.3     
  14 C14           -2.5257     0.0522    -3.5417 C.3     
  15 C15           -2.0732     0.3055    -2.1023 C.3     
  16 C16            3.7514     3.0435     1.2111 C.2     
  17 O17            2.8492     3.0325     2.0147 O.2     
  18 O18            4.8244     3.8232     1.4173 O.3     
  19 H19           -0.9592     1.9054     0.0170 H       
  20 H20            1.2231    -1.7588    -0.0184 H       
  21 H21            3.3386    -0.4987    -0.0324 H       
  22 H22            1.1563     3.1654     0.0069 H       
  23 H23           -1.1443    -1.7285     0.5181 H       
  24 H24           -2.0550    -0.1993     0.5353 H       
  25 H25            4.5100     1.4850    -0.0338 H       
  26 H26            2.8916     3.7654    -1.2575 H       
  27 H27            4.6661     3.6262    -1.2744 H       
  28 H28            3.6722     2.4453    -2.1609 H       
  29 H29           -0.9464    -1.5264    -1.9784 H       
  30 H30           -2.7572    -2.8672    -0.9429 H       
  31 H31           -3.7896    -1.4189    -0.8731 H       
  32 H32           -2.6446    -2.6680    -3.4120 H       
  33 H33           -4.3308    -2.8029    -2.8581 H       
  34 H34           -4.0938    -1.0165    -4.5614 H       
  35 H35           -4.5702    -0.3382    -2.9862 H       
  36 H36           -1.7270    -0.4457    -4.0914 H       
  37 H37           -2.7594     1.0026    -4.0217 H       
  38 H38           -2.8719     0.8034    -1.5526 H       
  39 H39           -1.1857     0.9383    -2.1065 H       
  40 H40            4.8300     4.3581     2.2229 H       
@<TRIPOS>BOND
   1    1    2 ar
   2    1    6 ar
   3    1   19 1
   4    2    3 ar
   5    2    7 1
   6    3    4 ar
   7    3   20 1
   8    4    5 ar
   9    4   21 1
  10    5    6 ar
  11    5    8 1
  12    6   22 1
  13    7   10 1
  14    7   23 1
  15    7   24 1
  16    8    9 1
  17    8   16 1
  18    8   25 1
  19    9   26 1
  20    9   27 1
  21    9   28 1
  22   10   11 1
  23   10   15 1
  24   10   29 1
  25   11   12 1
  26   11   30 1
  27   11   31 1
  28   12   13 1
  29   12   32 1
  30   12   33 1
  31   13   14 1
  32   13   34 1
  33   13   35 1
  34   14   15 1
  35   14   36 1
  36   14   37 1
  37   15   38 1
  38   15   39 1
  39   16   17 2
  40   16   18 1
  41   18   40 1

#	End of record

