#	Name: ASD00070006
#	Creating user name:	WinNT
#	Creation time:	15. 06. 2019 18:29

#	Modifying user name:	WinNT
#	Modification time:	15. 06. 2019 18:29

#	Program:	/corina/corina34_cracker 3.40 0067  02.08.2006

@<TRIPOS>MOLECULE
ASD00070006
  49   51    0    0    0
SMALL
NO_CHARGES


@<TRIPOS>ATOM
   1 N1            -0.0165     1.3677     0.0096 N.pl3   
   2 C2             0.0021    -0.0041     0.0020 C.ar    
   3 C3            -1.2091     2.2184     0.0309 C.3     
   4 C4             1.2793     1.7944    -0.0005 C.2     
   5 C5             1.3579    -0.3734    -0.0129 C.ar    
   6 N6            -0.9274    -0.9537     0.0058 N.ar    
   7 O7            -0.9053     3.5237    -0.5074 O.3     
   8 C8            -1.6533     2.4852     1.4862 C.3     
   9 N9             2.0837     0.7722    -0.0137 N.2     
  10 C10            1.6754    -1.7406    -0.0233 C.ar    
  11 C11           -0.5834    -2.2310    -0.0044 C.ar    
  12 C12           -1.9388     4.3949     0.0013 C.3     
  13 C13           -2.1444     3.9500     1.4663 C.3     
  14 O14           -2.7175     1.6053     1.8542 O.3     
  15 N15            0.6848    -2.6226    -0.0186 N.ar    
  16 O16            2.9663    -2.1506    -0.0383 O.3     
  17 N17           -1.5805    -3.1926     0.0000 N.pl3   
  18 C18           -1.4801     5.8535    -0.0530 C.3     
  19 O19           -3.5269     4.0195     1.8213 O.3     
  20 O20           -1.3372     6.2575    -1.4162 O.3     
  21 P21           -0.8679     7.7358    -1.8481 P.3     
  22 O22           -0.9435     7.8762    -3.4502 O.3     
  23 O23           -1.7585     8.7386    -1.2224 O.2     
  24 O24            0.6459     7.9827    -1.3586 O.3     
  25 P25           -0.9146     9.1249    -4.4661 P.3     
  26 N26           -1.0357     8.5640    -6.0482 N.3     
  27 O27           -2.0522    10.0253    -4.1735 O.2     
  28 O28            0.4675     9.9309    -4.2867 O.3     
  29 P29           -1.0092     9.8407    -7.1445 P.3     
  30 O30           -1.1269     9.2638    -8.6430 O.3     
  31 O31           -2.1476    10.7469    -6.8739 O.2     
  32 O32            0.3721    10.6530    -6.9890 O.3     
  33 H33           -2.0163     1.7531    -0.5348 H       
  34 H34            1.5912     2.8284     0.0021 H       
  35 H35           -0.8111     2.3740     2.1691 H       
  36 H36           -2.8587     4.2657    -0.5690 H       
  37 H37           -1.5450     4.5630     2.1393 H       
  38 H38           -3.0355     1.7295     2.7589 H       
  39 H39            3.3499    -2.2743     0.8407 H       
  40 H40           -2.5127    -2.9246     0.0103 H       
  41 H41           -1.3465    -4.1339    -0.0073 H       
  42 H42           -2.2203     6.4857     0.4375 H       
  43 H43           -0.5222     5.9525     0.4576 H       
  44 H44           -3.7212     3.6948     2.7112 H       
  45 H45            1.2859     7.3603    -1.7301 H       
  46 H46           -0.3065     7.8971    -6.2522 H       
  47 H47            1.2573     9.4014    -4.4629 H       
  48 H48           -1.1180     9.9456    -9.3287 H       
  49 H49            1.1623    10.1201    -7.1525 H       
@<TRIPOS>BOND
   1    1    2 1
   2    1    4 1
   3    1    3 1
   4    2    5 ar
   5    2    6 ar
   6    3    7 1
   7    3    8 1
   8    3   33 1
   9    4    9 2
  10    4   34 1
  11    5   10 ar
  12    5    9 1
  13    6   11 ar
  14    7   12 1
  15    8   13 1
  16    8   14 1
  17    8   35 1
  18   10   15 ar
  19   10   16 1
  20   11   17 1
  21   11   15 ar
  22   12   18 1
  23   12   13 1
  24   12   36 1
  25   13   19 1
  26   13   37 1
  27   14   38 1
  28   16   39 1
  29   17   40 1
  30   17   41 1
  31   18   20 1
  32   18   42 1
  33   18   43 1
  34   19   44 1
  35   20   21 1
  36   21   22 1
  37   21   23 2
  38   21   24 1
  39   22   25 1
  40   24   45 1
  41   25   26 1
  42   25   27 2
  43   25   28 1
  44   26   29 1
  45   26   46 1
  46   28   47 1
  47   29   30 1
  48   29   31 2
  49   29   32 1
  50   30   48 1
  51   32   49 1

#	End of record

