#	Name: ASD01914646
#	Creating user name:	WinNT
#	Creation time:	15. 06. 2019 20:03

#	Modifying user name:	WinNT
#	Modification time:	15. 06. 2019 20:03

#	Program:	/corina/corina34_cracker 3.40 0067  02.08.2006

@<TRIPOS>MOLECULE
ASD01914646
  60   65    0    0    0
SMALL
NO_CHARGES


@<TRIPOS>ATOM
   1 N1            -0.0165     1.3644     0.0095 N.pl3   
   2 C2             0.0021    -0.0041     0.0020 C.2     
   3 C3             1.2694    -0.4449    -0.0124 C.2     
   4 C4             2.1330     0.7394    -0.0143 C.ar    
   5 C5             3.5125     0.9302    -0.0269 C.ar    
   6 C6             4.0231     2.2246    -0.0252 C.ar    
   7 C7             3.1519     3.3231    -0.0105 C.ar    
   8 C8             1.8012     3.1392     0.0018 C.ar    
   9 C9             1.2682     1.8514    -0.0001 C.ar    
  10 C10            5.4835     2.4415    -0.0384 C.2     
  11 O11            6.2394     1.4894    -0.0507 O.2     
  12 N12            5.9787     3.6950    -0.0368 N.am    
  13 C13            7.4277     3.9103    -0.0498 C.3     
  14 C14            7.7203     5.4120    -0.0450 C.3     
  15 C15            9.2337     5.6368    -0.0586 C.3     
  16 C16            9.8318     5.0048    -1.3171 C.3     
  17 C17            9.5392     3.5030    -1.3220 C.3     
  18 C18           10.1618     2.8581    -0.0821 C.3     
  19 C19            9.5637     3.4901     1.1764 C.3     
  20 C20            8.0503     3.2653     1.1900 C.3     
  21 C21            9.8563     4.9919     1.1813 C.3     
  22 C22            8.0258     3.2782    -1.3083 C.3     
  23 N23            9.5138     7.0747    -0.0540 N.am    
  24 C24           10.7883     7.5130    -0.0642 C.2     
  25 O25           11.7050     6.7154    -0.0773 O.2     
  26 C26           11.0717     8.9674    -0.0594 C.ar    
  27 C27           12.3912     9.4140    -0.0701 C.ar    
  28 C28           12.6404    10.7773    -0.0659 C.ar    
  29 C29           11.5609    11.6468    -0.0513 C.ar    
  30 C30           10.2744    11.1322    -0.0413 C.ar    
  31 N31           10.0662     9.8336    -0.0506 N.ar    
  32 C32           -1.2277     2.1885     0.0200 C.3     
  33 H33           -0.8739    -0.6358     0.0070 H       
  34 H34            1.5917    -1.4757    -0.0205 H       
  35 H35            4.1799     0.0811    -0.0374 H       
  36 H36            3.5550     4.3250    -0.0086 H       
  37 H37            1.1419     3.9944     0.0134 H       
  38 H38            5.3756     4.4547    -0.0269 H       
  39 H39            7.2768     5.8715    -0.9283 H       
  40 H40            7.2942     5.8623     0.8516 H       
  41 H41            9.3882     5.4642    -2.2004 H       
  42 H42           10.9099     5.1649    -1.3268 H       
  43 H43            9.9653     3.0527    -2.2185 H       
  44 H44            9.9533     1.7882    -0.0856 H       
  45 H45           11.2399     3.0182    -0.0918 H       
  46 H46           10.0072     3.0306     2.0597 H       
  47 H47            7.6242     3.7156     2.0866 H       
  48 H48            7.8419     2.1954     1.1866 H       
  49 H49           10.9344     5.1520     1.1715 H       
  50 H50            9.4302     5.4421     2.0778 H       
  51 H51            7.8174     2.2084    -1.3118 H       
  52 H52            7.5823     3.7377    -2.1916 H       
  53 H53            8.7821     7.7114    -0.0435 H       
  54 H54           13.2083     8.7079    -0.0810 H       
  55 H55           13.6527    11.1537    -0.0736 H       
  56 H56           11.7210    12.7149    -0.0474 H       
  57 H57            9.4311    11.8068    -0.0299 H       
  58 H58           -1.5227     2.3877     1.0502 H       
  59 H59           -1.0301     3.1313    -0.4901 H       
  60 H60           -2.0314     1.6597    -0.4924 H       
@<TRIPOS>BOND
   1    1    2 1
   2    1    9 1
   3    1   32 1
   4    2    3 2
   5    2   33 1
   6    3    4 1
   7    3   34 1
   8    4    5 ar
   9    4    9 ar
  10    5    6 ar
  11    5   35 1
  12    6    7 ar
  13    6   10 1
  14    7    8 ar
  15    7   36 1
  16    8    9 ar
  17    8   37 1
  18   10   11 2
  19   10   12 am
  20   12   13 1
  21   12   38 1
  22   13   14 1
  23   13   20 1
  24   13   22 1
  25   14   15 1
  26   14   39 1
  27   14   40 1
  28   15   16 1
  29   15   21 1
  30   15   23 1
  31   16   17 1
  32   16   41 1
  33   16   42 1
  34   17   18 1
  35   17   22 1
  36   17   43 1
  37   18   19 1
  38   18   44 1
  39   18   45 1
  40   19   20 1
  41   19   21 1
  42   19   46 1
  43   20   47 1
  44   20   48 1
  45   21   49 1
  46   21   50 1
  47   22   51 1
  48   22   52 1
  49   23   24 am
  50   23   53 1
  51   24   25 2
  52   24   26 1
  53   26   27 ar
  54   26   31 ar
  55   27   28 ar
  56   27   54 1
  57   28   29 ar
  58   28   55 1
  59   29   30 ar
  60   29   56 1
  61   30   31 ar
  62   30   57 1
  63   32   58 1
  64   32   59 1
  65   32   60 1

#	End of record

