#	Name: ASD01150684
#	Creating user name:	WinNT
#	Creation time:	15. 06. 2019 19:04

#	Modifying user name:	WinNT
#	Modification time:	15. 06. 2019 19:04

#	Program:	/corina/corina34_cracker 3.40 0067  02.08.2006

@<TRIPOS>MOLECULE
ASD01150684
  45   48    0    0    0
SMALL
NO_CHARGES


@<TRIPOS>ATOM
   1 C1            -0.0180     1.5022     0.0027 C.2     
   2 C2            -0.7750     1.3060     1.2909 C.3     
   3 C3             3.6563     3.5781     0.0033 C.ar    
   4 C4             2.4880     4.3306    -0.0937 C.ar    
   5 C5             1.2389     3.6572    -0.0974 C.ar    
   6 C6             1.2418     2.2520    -0.0003 C.ar    
   7 C7             2.4701     1.5828     0.0938 C.ar    
   8 N8             3.6004     2.2429     0.0924 N.ar    
   9 C9             2.7472     5.7709    -0.1803 C.2     
  10 C10            4.0334     6.0884    -0.1515 C.2     
  11 S11            5.0464     4.6531    -0.0089 S.3     
  12 C12            4.2128     7.6013    -0.2462 C.3     
  13 C13            2.8317     8.1857     0.1108 C.3     
  14 C14            1.8935     7.0335    -0.2992 C.3     
  15 C15            2.4894     0.0796     0.1989 C.3     
  16 C16           -0.0302     4.4095    -0.1999 C.ar    
  17 C17           -0.8492     4.2534    -1.3194 C.ar    
  18 C18           -2.0319     4.9579    -1.4086 C.ar    
  19 C19           -2.4067     5.8180    -0.3916 C.ar    
  20 C20           -1.5993     5.9777     0.7206 C.ar    
  21 C21           -0.4170     5.2745     0.8251 C.ar    
  22 S22           -3.9188     6.7144    -0.5137 S.o2    
  23 O23           -3.7056     7.8713     0.2833 O.2     
  24 O24           -4.1514     6.8205    -1.9116 O.2     
  25 C25           -5.1517     5.6293     0.2562 C.3     
  26 O26           -0.4485     1.0353    -1.0311 O.2     
  27 H27           -0.1938     1.7111     2.1192 H       
  28 H28           -1.7327     1.8231     1.2319 H       
  29 H29           -0.9462     0.2418     1.4533 H       
  30 H30            4.9638     7.9396     0.4677 H       
  31 H31            4.4953     7.8871    -1.2594 H       
  32 H32            2.7575     8.3887     1.1792 H       
  33 H33            2.6251     9.0838    -0.4713 H       
  34 H34            1.5553     7.1672    -1.3267 H       
  35 H35            1.0408     6.9797     0.3776 H       
  36 H36            2.4410    -0.3550    -0.7996 H       
  37 H37            3.4092    -0.2385     0.6895 H       
  38 H38            1.6318    -0.2548     0.7826 H       
  39 H39           -0.5574     3.5829    -2.1142 H       
  40 H40           -2.6665     4.8380    -2.2742 H       
  41 H41           -1.8974     6.6509     1.5107 H       
  42 H42            0.2102     5.3967     1.6958 H       
  43 H43           -4.8730     5.4408     1.2930 H       
  44 H44           -6.1294     6.1102     0.2245 H       
  45 H45           -5.1937     4.6847    -0.2862 H       
@<TRIPOS>BOND
   1    1    2 1
   2    1    6 1
   3    1   26 2
   4    2   27 1
   5    2   28 1
   6    2   29 1
   7    3    4 ar
   8    3    8 ar
   9    3   11 1
  10    4    5 ar
  11    4    9 1
  12    5    6 ar
  13    5   16 1
  14    6    7 ar
  15    7    8 ar
  16    7   15 1
  17    9   10 2
  18    9   14 1
  19   10   11 1
  20   10   12 1
  21   12   13 1
  22   12   30 1
  23   12   31 1
  24   13   14 1
  25   13   32 1
  26   13   33 1
  27   14   34 1
  28   14   35 1
  29   15   36 1
  30   15   37 1
  31   15   38 1
  32   16   17 ar
  33   16   21 ar
  34   17   18 ar
  35   17   39 1
  36   18   19 ar
  37   18   40 1
  38   19   20 ar
  39   19   22 1
  40   20   21 ar
  41   20   41 1
  42   21   42 1
  43   22   23 2
  44   22   24 2
  45   22   25 1
  46   25   43 1
  47   25   44 1
  48   25   45 1

#	End of record

