#	Name: ASD03082238
#	Creating user name:	WinNT
#	Creation time:	15. 06. 2019 20:27

#	Modifying user name:	WinNT
#	Modification time:	15. 06. 2019 20:27

#	Program:	/corina/corina34_cracker 3.40 0067  02.08.2006

@<TRIPOS>MOLECULE
ASD03082238
  49   52    0    0    0
SMALL
NO_CHARGES


@<TRIPOS>ATOM
   1 N1            -0.2337     1.3235     0.0949 N.am    
   2 N2            -0.2556    -0.0798     0.0416 N.2     
   3 C3             0.9933    -0.4833     0.0463 C.2     
   4 N4             1.8000     0.5797     0.0992 N.2     
   5 C5             1.0825     1.6826     0.1294 C.2     
   6 N6             1.4119    -1.8124     0.0028 N.pl3   
   7 C7             0.4696    -2.8446     0.0581 C.ar    
   8 C8             0.8895    -4.1664     0.1362 C.ar    
   9 C9            -0.0426    -5.1838     0.1907 C.ar    
  10 C10           -1.3952    -4.8872     0.1671 C.ar    
  11 C11           -1.8160    -3.5705     0.0893 C.ar    
  12 C12           -0.8872    -2.5492     0.0408 C.ar    
  13 C13            0.4124    -6.6180     0.2753 C.3     
  14 F14            1.8106    -6.6639     0.2842 F       
  15 F15           -0.0806    -7.1950     1.4506 F       
  16 F16           -0.0704    -7.3265    -0.8302 F       
  17 C17            3.3693     4.6207     0.6491 C.ar    
  18 C18            2.9195     3.3170     0.6091 C.ar    
  19 C19            1.6085     3.0642     0.1894 C.ar    
  20 C20            0.8094     4.1541    -0.1722 C.ar    
  21 C21            1.3408     5.4259    -0.1015 C.ar    
  22 N22            2.5822     5.6200     0.2993 N.ar    
  23 C23           -1.2986     2.1496     0.1041 C.2     
  24 N24           -1.9549     2.4158    -1.0426 N.am    
  25 F25           -2.3053    -5.8843     0.2195 F       
  26 O26           -1.6668     2.6545     1.1462 O.2     
  27 C27            4.7767     4.9077     1.1050 C.3     
  28 C28           -3.0603     3.3731    -1.1947 C.3     
  29 C29           -3.5106     3.3224    -2.6699 C.3     
  30 C30           -3.0109     1.9301    -3.1381 C.3     
  31 C31           -1.6791     1.7999    -2.3533 C.3     
  32 H32            2.3567    -2.0213    -0.0658 H       
  33 H33            1.9442    -4.3982     0.1539 H       
  34 H34           -2.8713    -3.3415     0.0707 H       
  35 H35           -1.2160    -1.5220    -0.0149 H       
  36 H36            3.5695     2.5038     0.8965 H       
  37 H37           -0.2078     4.0026    -0.5020 H       
  38 H38            0.7318     6.2738    -0.3785 H       
  39 H39            5.4472     4.8924     0.2458 H       
  40 H40            4.8127     5.8898     1.5765 H       
  41 H41            5.0881     4.1485     1.8225 H       
  42 H42           -3.8881     3.0899    -0.5445 H       
  43 H43           -2.7177     4.3775    -0.9460 H       
  44 H44           -4.5961     3.3876    -2.7443 H       
  45 H45           -3.0352     4.1164    -3.2458 H       
  46 H46           -3.7138     1.1469    -2.8540 H       
  47 H47           -2.8314     1.9206    -4.2132 H       
  48 H48           -0.8812     2.3341    -2.8690 H       
  49 H49           -1.4142     0.7501    -2.2272 H       
@<TRIPOS>BOND
   1    1    2 1
   2    1    5 1
   3    1   23 am
   4    2    3 2
   5    3    4 1
   6    3    6 1
   7    4    5 2
   8    5   19 1
   9    6    7 1
  10    6   32 1
  11    7    8 ar
  12    7   12 ar
  13    8    9 ar
  14    8   33 1
  15    9   10 ar
  16    9   13 1
  17   10   11 ar
  18   10   25 1
  19   11   12 ar
  20   11   34 1
  21   12   35 1
  22   13   14 1
  23   13   15 1
  24   13   16 1
  25   17   18 ar
  26   17   22 ar
  27   17   27 1
  28   18   19 ar
  29   18   36 1
  30   19   20 ar
  31   20   21 ar
  32   20   37 1
  33   21   22 ar
  34   21   38 1
  35   23   24 am
  36   23   26 2
  37   24   28 1
  38   24   31 1
  39   27   39 1
  40   27   40 1
  41   27   41 1
  42   28   29 1
  43   28   42 1
  44   28   43 1
  45   29   30 1
  46   29   44 1
  47   29   45 1
  48   30   31 1
  49   30   46 1
  50   30   47 1
  51   31   48 1
  52   31   49 1

#	End of record

