#	Name: ASD04490013
#	Creating user name:	WinNT
#	Creation time:	15. 06. 2019 20:49

#	Modifying user name:	WinNT
#	Modification time:	15. 06. 2019 20:49

#	Program:	/corina/corina34_cracker 3.40 0067  02.08.2006

@<TRIPOS>MOLECULE
ASD04490013
  35   36    0    0    0
SMALL
NO_CHARGES


@<TRIPOS>ATOM
   1 C1            -0.0168     1.3871     0.0097 C.ar    
   2 C2             0.0021    -0.0041     0.0020 C.ar    
   3 C3            -1.1935    -0.7056     0.0136 C.ar    
   4 C4            -2.3918    -0.0248     0.0322 C.ar    
   5 C5            -2.4235     1.3637     0.0321 C.ar    
   6 C6            -1.2217     2.0664     0.0306 C.ar    
   7 C7            -3.8311    -0.5022     0.0652 C.3     
   8 C8            -4.5859     0.7836     0.4773 C.3     
   9 O9            -3.7046     1.8273     0.0289 O.3     
  10 O10            1.1527     2.0810     0.0022 O.3     
  11 O11            1.1873    -0.6722    -0.0172 O.3     
  12 C12           -5.9368     0.8713    -0.2357 C.3     
  13 C13           -4.2802    -0.9805    -1.3169 C.3     
  14 O14           -3.5486    -2.1545    -1.6757 O.3     
  15 C15            1.0610     3.5071     0.0108 C.3     
  16 S16            1.7449    -0.9836     1.3643 S.o2    
  17 O17            3.1390    -1.3560     1.1798 O.co2   
  18 O18            1.6038     0.2283     2.1565 O.co2   
  19 O19            0.9530    -2.0805     1.8988 O.co2   
  20 S20           -3.9163    -2.7202    -3.0400 S.o2    
  21 O21           -3.3727    -4.0684    -3.0953 O.co2   
  22 O22           -5.3688    -2.7136    -3.1192 O.co2   
  23 O23           -3.3114    -1.8464    -4.0333 O.co2   
  24 H24           -1.1860    -1.7855     0.0078 H       
  25 H25           -1.2302     3.1464     0.0369 H       
  26 H26           -3.9640    -1.2873     0.8096 H       
  27 H27           -4.7154     0.8256     1.5588 H       
  28 H28           -6.5445     0.0063     0.0298 H       
  29 H29           -6.4501     1.7833     0.0692 H       
  30 H30           -5.7782     0.8868    -1.3139 H       
  31 H31           -5.3457    -1.2093    -1.2937 H       
  32 H32           -4.0928    -0.1970    -2.0512 H       
  33 H33            0.5334     3.8319     0.9076 H       
  34 H34            2.0631     3.9357     0.0035 H       
  35 H35            0.5164     3.8414    -0.8723 H       
@<TRIPOS>BOND
   1    1    2 ar
   2    1   10 1
   3    1    6 ar
   4    2    3 ar
   5    2   11 1
   6    3    4 ar
   7    3   24 1
   8    4    5 ar
   9    4    7 1
  10    5    6 ar
  11    5    9 1
  12    6   25 1
  13    7    8 1
  14    7   13 1
  15    7   26 1
  16    8    9 1
  17    8   12 1
  18    8   27 1
  19   10   15 1
  20   11   16 1
  21   12   28 1
  22   12   29 1
  23   12   30 1
  24   13   14 1
  25   13   31 1
  26   13   32 1
  27   14   20 1
  28   15   33 1
  29   15   34 1
  30   15   35 1
  31   16   17 ar
  32   16   18 ar
  33   16   19 ar
  34   20   21 ar
  35   20   22 ar
  36   20   23 ar

#	End of record

