#	Name: ASD01901219
#	Creating user name:	WinNT
#	Creation time:	15. 06. 2019 19:53

#	Modifying user name:	WinNT
#	Modification time:	15. 06. 2019 19:53

#	Program:	/corina/corina34_cracker 3.40 0067  02.08.2006

@<TRIPOS>MOLECULE
ASD01901219
  29   31    0    0    0
SMALL
NO_CHARGES


@<TRIPOS>ATOM
   1 C1            -0.0167     1.3798     0.0096 C.ar    
   2 C2             0.0021    -0.0041     0.0020 C.ar    
   3 C3             1.2029    -0.6820    -0.0131 C.ar    
   4 C4             2.4047     0.0316    -0.0208 C.ar    
   5 C5             2.3788     1.4318    -0.0131 C.ar    
   6 C6             1.1673     2.0954     0.0022 C.ar    
   7 C7             3.6556    -0.6653    -0.0361 C.1     
   8 C8             4.6812    -1.2366    -0.0486 C.1     
   9 C9             5.9321    -1.9334    -0.0639 C.ar    
  10 C10            7.2077    -1.2132    -0.0722 C.ar    
  11 C11            8.4071    -1.9656    -0.0873 C.ar    
  12 N12            8.3551    -3.3015    -0.0940 N.ar    
  13 C13            7.2225    -3.9612    -0.0872 C.ar    
  14 C14            5.9883    -3.3279    -0.0656 C.ar    
  15 C15            7.2614     0.1837    -0.0661 C.ar    
  16 C16            8.4728     0.8109    -0.0747 C.ar    
  17 C17            9.6553     0.0763    -0.0899 C.ar    
  18 C18            9.6369    -1.2854    -0.0953 C.ar    
  19 F19            3.5347     2.1311    -0.0199 F       
  20 H20           -0.9609     1.9040     0.0169 H       
  21 H21           -0.9269    -0.5549     0.0083 H       
  22 H22            1.2146    -1.7619    -0.0187 H       
  23 H23            1.1443     3.1752     0.0082 H       
  24 H24            7.2513    -5.0408    -0.0933 H       
  25 H25            5.0783    -3.9094    -0.0549 H       
  26 H26            6.3497     0.7627    -0.0551 H       
  27 H27            8.5151     1.8900    -0.0701 H       
  28 H28           10.6027     0.5948    -0.0968 H       
  29 H29           10.5634    -1.8403    -0.1071 H       
@<TRIPOS>BOND
   1    1    2 ar
   2    1    6 ar
   3    1   20 1
   4    2    3 ar
   5    2   21 1
   6    3    4 ar
   7    3   22 1
   8    4    5 ar
   9    4    7 1
  10    5    6 ar
  11    5   19 1
  12    6   23 1
  13    7    8 3
  14    8    9 1
  15    9   10 ar
  16    9   14 ar
  17   10   11 ar
  18   10   15 ar
  19   11   12 ar
  20   11   18 ar
  21   12   13 ar
  22   13   14 ar
  23   13   24 1
  24   14   25 1
  25   15   16 ar
  26   15   26 1
  27   16   17 ar
  28   16   27 1
  29   17   18 ar
  30   17   28 1
  31   18   29 1

#	End of record

