#	Name: ASD08830163
#	Creating user name:	WinNT
#	Creation time:	15. 06. 2019 21:19

#	Modifying user name:	WinNT
#	Modification time:	15. 06. 2019 21:19

#	Program:	/corina/corina34_cracker 3.40 0067  02.08.2006

@<TRIPOS>MOLECULE
ASD08830163
  35   38    0    0    0
SMALL
NO_CHARGES


@<TRIPOS>ATOM
   1 C1            -0.0167     1.3816     0.0096 C.ar    
   2 C2             0.0021    -0.0041     0.0020 C.ar    
   3 C3             2.4391     0.0661    -0.0209 C.ar    
   4 C4             2.3889     1.4730    -0.0128 C.ar    
   5 C5             1.2320    -0.6786    -0.0133 C.ar    
   6 C6             1.1924     2.1064     0.0020 C.ar    
   7 C7             1.2896    -2.0838    -0.0210 C.ar    
   8 C8             2.4989    -2.7086    -0.0354 C.ar    
   9 C9             3.6841    -1.9763    -0.0429 C.ar    
  10 C10            3.6672    -0.6146    -0.0354 C.ar    
  11 C11            0.8061     3.5658     0.0135 C.3     
  12 O12           -0.6464     3.6075     0.0276 O.3     
  13 C13           -1.1260     2.3532     0.0314 C.2     
  14 O14           -2.3050     2.0608     0.0426 O.2     
  15 N15            1.3405     4.2189     1.2160 N.3     
  16 C16            1.0785     5.6653     1.1905 C.3     
  17 C17            2.7786     3.9526     1.3651 C.3     
  18 C18            3.2805     4.5998     2.6586 C.3     
  19 O19            2.9893     5.9997     2.6294 O.3     
  20 C20            1.5974     6.2954     2.4857 C.3     
  21 H21           -0.9235    -0.5606     0.0082 H       
  22 H22            3.3040     2.0465    -0.0185 H       
  23 H23            0.3789    -2.6643    -0.0150 H       
  24 H24            2.5401    -3.7878    -0.0409 H       
  25 H25            4.6305    -2.4965    -0.0544 H       
  26 H26            4.5943    -0.0607    -0.0413 H       
  27 H27            1.1856     4.0600    -0.8808 H       
  28 H28            1.5893     6.1127     0.3379 H       
  29 H29            0.0058     5.8394     1.1053 H       
  30 H30            2.9470     2.8765     1.4075 H       
  31 H31            3.3166     4.3727     0.5153 H       
  32 H32            2.7810     4.1419     3.5124 H       
  33 H33            4.3572     4.4538     2.7447 H       
  34 H34            1.4569     7.3756     2.4467 H       
  35 H35            1.0490     5.8867     3.3344 H       
@<TRIPOS>BOND
   1    1    2 ar
   2    1    6 ar
   3    1   13 1
   4    2    5 ar
   5    2   21 1
   6    3    4 ar
   7    3    5 ar
   8    3   10 ar
   9    4    6 ar
  10    4   22 1
  11    5    7 ar
  12    6   11 1
  13    7    8 ar
  14    7   23 1
  15    8    9 ar
  16    8   24 1
  17    9   10 ar
  18    9   25 1
  19   10   26 1
  20   11   12 1
  21   11   15 1
  22   11   27 1
  23   12   13 1
  24   13   14 2
  25   15   16 1
  26   15   17 1
  27   16   20 1
  28   16   28 1
  29   16   29 1
  30   17   18 1
  31   17   30 1
  32   17   31 1
  33   18   19 1
  34   18   32 1
  35   18   33 1
  36   19   20 1
  37   20   34 1
  38   20   35 1

#	End of record

