#	Name: ASD01940548
#	Creating user name:	WinNT
#	Creation time:	15. 06. 2019 20:12

#	Modifying user name:	WinNT
#	Modification time:	15. 06. 2019 20:12

#	Program:	/corina/corina34_cracker 3.40 0067  02.08.2006

@<TRIPOS>MOLECULE
ASD01940548
  68   72    0    0    0
SMALL
NO_CHARGES


@<TRIPOS>ATOM
   1 C1             0.0881     1.4736    -0.5038 C.ar    
   2 C2             0.4285     0.6405     0.5515 C.ar    
   3 C3             1.6514    -0.0170     0.5464 C.ar    
   4 C4             2.5300     0.1617    -0.5154 C.ar    
   5 C5             2.1875     0.9929    -1.5646 C.ar    
   6 C6             0.9712     1.6479    -1.5624 C.ar    
   7 N7            -1.1468     2.1341    -0.5052 N.am    
   8 C8            -1.1958     3.4793    -0.1838 C.2     
   9 C9            -2.4445     4.1455    -0.1861 C.2     
  10 C10           -3.6507     3.3642    -0.5352 C.2     
  11 N11           -3.4798     2.0062    -0.8433 N.am    
  12 C12           -2.2575     1.4501    -0.8239 C.2     
  13 C13           -0.0576     4.1938     0.1401 C.2     
  14 C14           -0.1698     5.5502     0.4555 C.2     
  15 N15           -1.3649     6.1668     0.4482 N.am    
  16 C16           -2.5081     5.4900     0.1333 C.2     
  17 N17           -3.7173     6.1420     0.1332 N.pl3   
  18 C18           -1.4417     7.5905     0.7852 C.3     
  19 O19            0.8329     6.1856     0.7428 O.2     
  20 C20            1.2889     3.5172     0.1533 C.3     
  21 C21           -4.8602     3.9314    -0.5561 C.2     
  22 C22           -4.5937     1.2245    -1.1798 C.ar    
  23 N23            1.9983    -0.8566     1.6074 N.am    
  24 C24            1.6041    -0.5567     2.8608 C.2     
  25 C25            1.8724    -1.5095     3.9741 C.2     
  26 O26            1.0303     0.4898     3.0826 O.2     
  27 C27           -4.4975     6.1696     1.2947 C.ar    
  28 C28           -4.0074     5.6273     2.4751 C.ar    
  29 C29           -4.7794     5.6564     3.6202 C.ar    
  30 C30           -6.0402     6.2250     3.5929 C.ar    
  31 C31           -6.5331     6.7662     2.4192 C.ar    
  32 C32           -5.7632     6.7456     1.2705 C.ar    
  33 F33           -6.2421     7.2790     0.1254 F       
  34 O34           -2.1525     0.2713    -1.1021 O.2     
  35 I35           -7.2061     6.2659     5.3331 I       
  36 C36            1.4316    -1.1742     5.3756 C.3     
  37 O37            2.4433    -2.5508     3.7534 O.2     
  38 C38           -5.2999     1.4876    -2.3460 C.ar    
  39 C39           -6.3975     0.7176    -2.6780 C.ar    
  40 C40           -6.7952    -0.3187    -1.8471 C.ar    
  41 C41           -6.0899    -0.5834    -0.6801 C.ar    
  42 C42           -4.9876     0.1834    -0.3501 C.ar    
  43 F43           -6.4774    -1.5932     0.1294 F       
  44 O44           -7.8765    -1.0761    -2.1747 O.3     
  45 H45           -0.2561     0.5037     1.3756 H       
  46 H46            3.4814    -0.3492    -0.5203 H       
  47 H47            2.8721     1.1305    -2.3886 H       
  48 H48            0.7065     2.2966    -2.3843 H       
  49 H49           -4.0304     6.5832    -0.6720 H       
  50 H50           -0.4581     7.9443     1.0941 H       
  51 H51           -1.7725     8.1531    -0.0878 H       
  52 H52           -2.1516     7.7332     1.5999 H       
  53 H53            1.6972     3.5008    -0.8572 H       
  54 H54            1.9648     4.0658     0.8094 H       
  55 H55            1.1787     2.4957     0.5173 H       
  56 H56           -4.9807     4.9581    -0.2434 H       
  57 H57           -5.7175     3.3631    -0.8856 H       
  58 H58            2.5230    -1.6555     1.4421 H       
  59 H59           -3.0234     5.1828     2.4979 H       
  60 H60           -4.3981     5.2342     4.5383 H       
  61 H61           -7.5180     7.2087     2.4008 H       
  62 H62            0.4221    -1.5516     5.5391 H       
  63 H63            2.1123    -1.6359     6.0909 H       
  64 H64            1.4415    -0.0927     5.5106 H       
  65 H65           -4.9911     2.2949    -2.9936 H       
  66 H66           -6.9465     0.9232    -3.5850 H       
  67 H67           -4.4358    -0.0248     0.5546 H       
  68 H68           -7.6652    -1.8515    -2.7126 H       
@<TRIPOS>BOND
   1    1    2 ar
   2    1    6 ar
   3    1    7 1
   4    2    3 ar
   5    2   45 1
   6    3    4 ar
   7    3   23 1
   8    4    5 ar
   9    4   46 1
  10    5    6 ar
  11    5   47 1
  12    6   48 1
  13    7    8 1
  14    7   12 am
  15    8   13 2
  16    8    9 1
  17    9   10 1
  18    9   16 2
  19   10   11 1
  20   10   21 2
  21   11   12 am
  22   11   22 1
  23   12   34 2
  24   13   14 1
  25   13   20 1
  26   14   15 am
  27   14   19 2
  28   15   16 1
  29   15   18 1
  30   16   17 1
  31   17   27 1
  32   17   49 1
  33   18   50 1
  34   18   51 1
  35   18   52 1
  36   20   53 1
  37   20   54 1
  38   20   55 1
  39   21   56 1
  40   21   57 1
  41   22   38 ar
  42   22   42 ar
  43   23   24 am
  44   23   58 1
  45   24   25 1
  46   24   26 2
  47   25   36 1
  48   25   37 2
  49   27   28 ar
  50   27   32 ar
  51   28   29 ar
  52   28   59 1
  53   29   30 ar
  54   29   60 1
  55   30   31 ar
  56   30   35 1
  57   31   32 ar
  58   31   61 1
  59   32   33 1
  60   36   62 1
  61   36   63 1
  62   36   64 1
  63   38   39 ar
  64   38   65 1
  65   39   40 ar
  66   39   66 1
  67   40   41 ar
  68   40   44 1
  69   41   42 ar
  70   41   43 1
  71   42   67 1
  72   44   68 1

#	End of record

