#	Name: ASD02038094
#	Creating user name:	WinNT
#	Creation time:	15. 06. 2019 20:16

#	Modifying user name:	WinNT
#	Modification time:	15. 06. 2019 20:16

#	Program:	/corina/corina34_cracker 3.40 0067  02.08.2006

@<TRIPOS>MOLECULE
ASD02038094
  56   58    0    0    0
SMALL
NO_CHARGES


@<TRIPOS>ATOM
   1 C1            -0.4551     1.2203     1.9529 C.ar    
   2 C2             0.5908     1.4534     2.8335 C.ar    
   3 C3            -0.3601     0.2019     1.0160 C.ar    
   4 C4             0.7761    -0.5813     0.9596 C.ar    
   5 C5             1.8237    -0.3486     1.8409 C.ar    
   6 C6             1.7279     0.6714     2.7782 C.ar    
   7 N7             2.9750    -1.1420     1.7848 N.3     
   8 C8             3.9515    -0.7257     2.8010 C.3     
   9 C9             5.1588    -1.6655     2.7598 C.3     
  10 N10            5.7549    -1.6343     1.4169 N.3     
  11 C11            4.7784    -2.0506     0.4006 C.3     
  12 C12            3.5711    -1.1108     0.4419 C.3     
  13 C13            6.9636    -2.4672     1.3580 C.3     
  14 C14            8.0476    -1.8565     2.2483 C.3     
  15 C15            9.2694    -2.7772     2.2688 C.3     
  16 O16            8.4234    -0.5779     1.7325 O.3     
  17 O17           10.2352    -2.2668     3.1900 O.3     
  18 C18           11.3893    -2.9728     3.3290 C.ar    
  19 C19           12.3693    -2.5332     4.2066 C.ar    
  20 C20           13.5413    -3.2498     4.3487 C.ar    
  21 C21           13.7385    -4.4107     3.6127 C.ar    
  22 C22           12.7568    -4.8501     2.7343 C.ar    
  23 C23           11.5831    -4.1351     2.5974 C.ar    
  24 O24           -1.5768     1.9871     2.0118 O.3     
  25 N25           14.9260    -5.1371     3.7557 N.am    
  26 S26           16.0851    -5.0698     2.5750 S.o2    
  27 O27           17.1212    -5.9171     3.0523 O.2     
  28 O28           15.3835    -5.3739     1.3773 O.2     
  29 C29           16.6286    -3.3391     2.5724 C.3     
  30 H30            0.5162     2.2468     3.5624 H       
  31 H31           -1.1750     0.0211     0.3307 H       
  32 H32            0.8496    -1.3746     0.2305 H       
  33 H33            2.5422     0.8530     3.4640 H       
  34 H34            4.2773     0.2941     2.5961 H       
  35 H35            3.4904    -0.7692     3.7877 H       
  36 H36            5.8973    -1.3412     3.4930 H       
  37 H37            4.8374    -2.6809     2.9915 H       
  38 H38            5.2396    -2.0071    -0.5861 H       
  39 H39            4.4527    -3.0704     0.6055 H       
  40 H40            2.8327    -1.4351    -0.2914 H       
  41 H41            3.8926    -0.0954     0.2102 H       
  42 H42            6.7295    -3.4725     1.7081 H       
  43 H43            7.3222    -2.5149     0.3297 H       
  44 H44            7.6630    -1.7407     3.2616 H       
  45 H45            8.9655    -3.7773     2.5779 H       
  46 H46            9.7070    -2.8225     1.2715 H       
  47 H47            8.7753    -0.6050     0.8322 H       
  48 H48           12.2159    -1.6301     4.7787 H       
  49 H49           14.3045    -2.9072     5.0318 H       
  50 H50           12.9093    -5.7528     2.1615 H       
  51 H51           10.8194    -4.4769     1.9146 H       
  52 H52           -1.5435     2.7762     1.4538 H       
  53 H53           15.0701    -5.6801     4.5465 H       
  54 H54           17.1095    -3.1079     3.5229 H       
  55 H55           17.3371    -3.1820     1.7591 H       
  56 H56           15.7658    -2.6876     2.4337 H       
@<TRIPOS>BOND
   1    1    2 ar
   2    1    3 ar
   3    1   24 1
   4    2    6 ar
   5    2   30 1
   6    3    4 ar
   7    3   31 1
   8    4    5 ar
   9    4   32 1
  10    5    6 ar
  11    5    7 1
  12    6   33 1
  13    7    8 1
  14    7   12 1
  15    8    9 1
  16    8   34 1
  17    8   35 1
  18    9   10 1
  19    9   36 1
  20    9   37 1
  21   10   11 1
  22   10   13 1
  23   11   12 1
  24   11   38 1
  25   11   39 1
  26   12   40 1
  27   12   41 1
  28   13   14 1
  29   13   42 1
  30   13   43 1
  31   14   16 1
  32   14   15 1
  33   14   44 1
  34   15   17 1
  35   15   45 1
  36   15   46 1
  37   16   47 1
  38   17   18 1
  39   18   19 ar
  40   18   23 ar
  41   19   20 ar
  42   19   48 1
  43   20   21 ar
  44   20   49 1
  45   21   22 ar
  46   21   25 1
  47   22   23 ar
  48   22   50 1
  49   23   51 1
  50   24   52 1
  51   25   26 am
  52   25   53 1
  53   26   27 2
  54   26   28 2
  55   26   29 1
  56   29   54 1
  57   29   55 1
  58   29   56 1

#	End of record

