#	Name: ASD03091802
#	Creating user name:	WinNT
#	Creation time:	15. 06. 2019 20:31

#	Modifying user name:	WinNT
#	Modification time:	15. 06. 2019 20:31

#	Program:	/corina/corina34_cracker 3.40 0067  02.08.2006

@<TRIPOS>MOLECULE
ASD03091802
  47   51    0    0    0
SMALL
NO_CHARGES


@<TRIPOS>ATOM
   1 N1            -0.0212     2.7180     1.2913 N.pl3   
   2 N2            -0.2625     4.0560     0.9638 N.2     
   3 C3             0.8535     4.6476     0.6469 C.2     
   4 C4             1.9268     3.6646     0.7614 C.ar    
   5 C5             3.3085     3.7100     0.5551 C.ar    
   6 C6             4.0652     2.5664     0.7580 C.ar    
   7 C7             3.4490     1.3765     1.1657 C.ar    
   8 C8             2.1021     1.3245     1.3684 C.ar    
   9 C9             1.3197     2.4615     1.1719 C.ar    
  10 C10            5.5321     2.6029     0.5421 C.ar    
  11 C11            6.2886     1.4504     0.7475 C.ar    
  12 C12            7.6553     1.4968     0.5425 C.ar    
  13 C13            8.2252     2.7008     0.1366 C.ar    
  14 C14            7.4102     3.8086    -0.0484 C.ar    
  15 N15            6.1103     3.7306     0.1503 N.ar    
  16 O16            9.5646     2.7900    -0.0756 O.3     
  17 C17           12.4631     0.4589    -0.5919 C.3     
  18 C18           11.5906     1.7033    -0.8221 C.3     
  19 C19           10.3189     1.5803     0.0222 C.3     
  20 C20           10.6925     1.3299     1.4860 C.3     
  21 C21           11.6258     0.1108     1.5598 C.3     
  22 C22           11.0010    -1.0156     0.7047 C.3     
  23 C23           11.5542    -0.7856    -0.7171 C.3     
  24 N24           12.8754     0.4680     0.8369 N.3     
  25 C25           13.9300    -0.5237     1.0868 C.3     
  26 H26           -0.6947     2.0752     1.5635 H       
  27 H27            0.9649     5.6806     0.3518 H       
  28 H28            3.7823     4.6279     0.2401 H       
  29 H29            4.0473     0.4908     1.3207 H       
  30 H30            1.6398     0.4002     1.6820 H       
  31 H31            5.8135     0.5332     1.0629 H       
  32 H32            8.2668     0.6195     0.6942 H       
  33 H33            7.8465     4.7451    -0.3632 H       
  34 H34           13.3114     0.4202    -1.2752 H       
  35 H35           12.1415     2.5955    -0.5246 H       
  36 H36           11.3234     1.7718    -1.8767 H       
  37 H37            9.7187     0.7480    -0.3455 H       
  38 H38           11.2030     2.2054     1.8874 H       
  39 H39            9.7899     1.1342     2.0648 H       
  40 H40           11.8086    -0.2047     2.5870 H       
  41 H41           11.3101    -1.9916     1.0787 H       
  42 H42            9.9140    -0.9346     0.7065 H       
  43 H43           10.7393    -0.5915    -1.4144 H       
  44 H44           12.1354    -1.6485    -1.0422 H       
  45 H45           14.7991    -0.2930     0.4707 H       
  46 H46           14.2129    -0.4959     2.1391 H       
  47 H47           13.5605    -1.5180     0.8360 H       
@<TRIPOS>BOND
   1    1    2 1
   2    1    9 1
   3    1   26 1
   4    2    3 2
   5    3    4 1
   6    3   27 1
   7    4    5 ar
   8    4    9 ar
   9    5    6 ar
  10    5   28 1
  11    6    7 ar
  12    6   10 1
  13    7    8 ar
  14    7   29 1
  15    8    9 ar
  16    8   30 1
  17   10   11 ar
  18   10   15 ar
  19   11   12 ar
  20   11   31 1
  21   12   13 ar
  22   12   32 1
  23   13   14 ar
  24   13   16 1
  25   14   15 ar
  26   14   33 1
  27   16   19 1
  28   17   18 1
  29   17   23 1
  30   17   24 1
  31   17   34 1
  32   18   19 1
  33   18   35 1
  34   18   36 1
  35   19   20 1
  36   19   37 1
  37   20   21 1
  38   20   38 1
  39   20   39 1
  40   21   22 1
  41   21   24 1
  42   21   40 1
  43   22   23 1
  44   22   41 1
  45   22   42 1
  46   23   43 1
  47   23   44 1
  48   24   25 1
  49   25   45 1
  50   25   46 1
  51   25   47 1

#	End of record

