#	Name: ASD05380063
#	Creating user name:	WinNT
#	Creation time:	15. 06. 2019 20:59

#	Modifying user name:	WinNT
#	Modification time:	15. 06. 2019 20:59

#	Program:	/corina/corina34_cracker 3.40 0067  02.08.2006

@<TRIPOS>MOLECULE
ASD05380063
  46   50    0    0    0
SMALL
NO_CHARGES


@<TRIPOS>ATOM
   1 C1            -0.2260     1.5760    -0.3888 C.ar    
   2 C2            -0.0886     0.1884    -0.6182 C.ar    
   3 C3             0.7603     2.4577    -0.8296 C.ar    
   4 C4             1.8671     1.9637    -1.4891 C.ar    
   5 C5             2.0035     0.6014    -1.7157 C.ar    
   6 C6             1.0405    -0.2857    -1.2878 C.ar    
   7 N7            -1.0605    -0.6505    -0.1800 N.2     
   8 C8            -2.1105    -0.2090     0.4431 C.2     
   9 N9            -2.3249     1.1086     0.7062 N.am    
  10 C10           -1.4232     2.0428     0.3240 C.2     
  11 C11           -3.4859     1.5011     1.3841 C.ar    
  12 C12           -4.6409     1.7973     0.6718 C.ar    
  13 C13           -3.4859     1.5892     2.7694 C.ar    
  14 C14           -4.6346     1.9773     3.4359 C.ar    
  15 C15           -5.7825     2.2768     2.7213 C.ar    
  16 C16           -5.7848     2.1842     1.3418 C.ar    
  17 C17           -3.1446    -1.2066     0.8977 C.3     
  18 N18           -3.2466    -2.2870    -0.0865 N.pl3   
  19 C19           -4.4171    -3.0178    -0.1929 C.ar    
  20 N20           -5.4579    -2.7526     0.5899 N.ar    
  21 O21           -1.6019     3.2250     0.5531 O.2     
  22 C22           -4.5347    -4.0535    -1.1350 C.ar    
  23 C23           -5.7478    -4.7602    -1.1962 C.ar    
  24 N24           -6.7320    -4.4266    -0.3679 N.ar    
  25 C25           -6.5785    -3.4446     0.4954 C.ar    
  26 N26           -3.7146    -4.5864    -2.0725 N.2     
  27 C27           -4.3319    -5.5515    -2.6899 C.2     
  28 N28           -5.5898    -5.6978    -2.1853 N.pl3   
  29 Cl29           0.5969     4.1634    -0.5512 Cl      
  30 C30           -2.7323    -1.7875     2.2518 C.3     
  31 F31           -4.6366     2.0636     4.7841 F       
  32 H32            2.6334     2.6431    -1.8321 H       
  33 H33            2.8759     0.2320    -2.2341 H       
  34 H34            1.1585    -1.3437    -1.4699 H       
  35 H35           -4.6442     1.7255    -0.4058 H       
  36 H36           -2.5907     1.3548     3.3262 H       
  37 H37           -6.6786     2.5793     3.2429 H       
  38 H38           -6.6814     2.4184     0.7871 H       
  39 H39           -4.1104    -0.7105     0.9940 H       
  40 H40           -2.4939    -2.4901    -0.6635 H       
  41 H41           -7.3998    -3.1961     1.1512 H       
  42 H42           -3.9099    -6.1484    -3.4849 H       
  43 H43           -6.2515    -6.3462    -2.4724 H       
  44 H44           -1.8140    -2.3631     2.1358 H       
  45 H45           -2.5653    -0.9756     2.9597 H       
  46 H46           -3.5239    -2.4375     2.6245 H       
@<TRIPOS>BOND
   1    1    2 ar
   2    1    3 ar
   3    1   10 1
   4    2    7 1
   5    2    6 ar
   6    3    4 ar
   7    3   29 1
   8    4    5 ar
   9    4   32 1
  10    5    6 ar
  11    5   33 1
  12    6   34 1
  13    7    8 2
  14    8    9 1
  15    8   17 1
  16    9   10 am
  17    9   11 1
  18   10   21 2
  19   11   12 ar
  20   11   13 ar
  21   12   16 ar
  22   12   35 1
  23   13   14 ar
  24   13   36 1
  25   14   15 ar
  26   14   31 1
  27   15   16 ar
  28   15   37 1
  29   16   38 1
  30   17   18 1
  31   17   30 1
  32   17   39 1
  33   18   19 1
  34   18   40 1
  35   19   20 ar
  36   19   22 ar
  37   20   25 ar
  38   22   23 ar
  39   22   26 1
  40   23   24 ar
  41   23   28 1
  42   24   25 ar
  43   25   41 1
  44   26   27 2
  45   27   28 1
  46   27   42 1
  47   28   43 1
  48   30   44 1
  49   30   45 1
  50   30   46 1

#	End of record

