#	Name: ASD01940152
#	Creating user name:	WinNT
#	Creation time:	15. 06. 2019 20:11

#	Modifying user name:	WinNT
#	Modification time:	15. 06. 2019 20:11

#	Program:	/corina/corina34_cracker 3.40 0067  02.08.2006

@<TRIPOS>MOLECULE
ASD01940152
  42   43    0    0    0
SMALL
NO_CHARGES


@<TRIPOS>ATOM
   1 C1             0.2205     1.4316    -0.1847 C.3     
   2 F2            -2.1542    -4.9610     0.2194 F       
   3 C3            -1.2373    -5.3047     1.1501 C.ar    
   4 C4             0.0940    -4.9493     0.9784 C.ar    
   5 C5             1.0364    -5.3062     1.9415 C.ar    
   6 C6             0.6405    -6.0143     3.0663 C.ar    
   7 C7            -0.6866    -6.3655     3.2320 C.ar    
   8 C8            -1.6255    -6.0072     2.2797 C.ar    
   9 N9             0.4892    -4.2341    -0.1605 N.pl3   
  10 N10            2.3813    -4.9507     1.7732 N.am    
  11 C11            0.4231    -2.8384    -0.1667 C.ar    
  12 C12            0.0323    -2.1549     0.9773 C.ar    
  13 C13           -0.0325    -0.7750     0.9676 C.ar    
  14 C14            0.2921    -0.0737    -0.1788 C.ar    
  15 C15            0.6819    -0.7503    -1.3205 C.ar    
  16 C16            0.7541    -2.1300    -1.3167 C.ar    
  17 Cl17           1.2434    -2.9789    -2.7498 Cl      
  18 F18           -2.9218    -6.3481     2.4493 F       
  19 S19            3.5786    -5.9733     2.2861 S.o2    
  20 O20            4.7812    -5.3427     1.8676 O.2     
  21 O21            3.2991    -6.1767     3.6644 O.2     
  22 C22            3.3013    -7.5012     1.3483 C.3     
  23 O23            4.2874    -8.4692     1.7124 O.3     
  24 C24            5.1801   -10.0813     3.2760 C.3     
  25 C25            4.0703    -9.0670     2.9920 C.3     
  26 H26            1.1830     1.8423     0.1204 H       
  27 H27           -0.0212     1.7799    -1.1889 H       
  28 H28           -0.5519     1.7614     0.5100 H       
  29 H29            1.3694    -6.2920     3.8133 H       
  30 H30           -0.9923    -6.9169     4.1089 H       
  31 H31            0.8085    -4.7080    -0.9442 H       
  32 H32            2.6110    -4.1055     1.3563 H       
  33 H33           -0.2215    -2.7017     1.8734 H       
  34 H34           -0.3364    -0.2432     1.8571 H       
  35 H35            0.9341    -0.1994    -2.2146 H       
  36 H36            2.3088    -7.8910     1.5740 H       
  37 H37            3.3751    -7.2910     0.2813 H       
  38 H38            5.1711   -10.8543     2.5075 H       
  39 H39            6.1453    -9.5749     3.2706 H       
  40 H40            5.0145   -10.5374     4.2520 H       
  41 H41            4.0793    -8.2940     3.7605 H       
  42 H42            3.1051    -9.5735     2.9974 H       
@<TRIPOS>BOND
   1    1   14 1
   2    1   26 1
   3    1   27 1
   4    1   28 1
   5    2    3 1
   6    3    4 ar
   7    3    8 ar
   8    4    5 ar
   9    4    9 1
  10    5    6 ar
  11    5   10 1
  12    6    7 ar
  13    6   29 1
  14    7    8 ar
  15    7   30 1
  16    8   18 1
  17    9   11 1
  18    9   31 1
  19   10   19 am
  20   10   32 1
  21   11   12 ar
  22   11   16 ar
  23   12   13 ar
  24   12   33 1
  25   13   14 ar
  26   13   34 1
  27   14   15 ar
  28   15   16 ar
  29   15   35 1
  30   16   17 1
  31   19   20 2
  32   19   21 2
  33   19   22 1
  34   22   23 1
  35   22   36 1
  36   22   37 1
  37   23   25 1
  38   24   25 1
  39   24   38 1
  40   24   39 1
  41   24   40 1
  42   25   41 1
  43   25   42 1

#	End of record

