#	Name: ASD01915046
#	Creating user name:	WinNT
#	Creation time:	15. 06. 2019 20:04

#	Modifying user name:	WinNT
#	Modification time:	15. 06. 2019 20:04

#	Program:	/corina/corina34_cracker 3.40 0067  02.08.2006

@<TRIPOS>MOLECULE
ASD01915046
  29   31    0    0    0
SMALL
NO_CHARGES


@<TRIPOS>ATOM
   1 C1            -0.0180     1.4731     0.0101 C.2     
   2 C2             0.0021    -0.0041     0.0020 C.ar    
   3 C3             1.2193    -0.6885    -0.0133 C.ar    
   4 C4             1.2313    -2.0682    -0.0203 C.ar    
   5 C5             0.0381    -2.7742    -0.0122 C.ar    
   6 C6            -1.1714    -2.1002     0.0029 C.ar    
   7 C7            -1.1958    -0.7212     0.0154 C.ar    
   8 O8             1.0263     2.0951     0.0035 O.2     
   9 N9            -1.1942     2.1310     0.0193 N.am    
  10 Cl10           0.0604    -4.5101    -0.0218 Cl      
  11 Cl11           2.7430    -2.9216    -0.0399 Cl      
  12 C12           -1.2129     3.5144     0.0269 C.2     
  13 N13           -0.1061     4.3135     0.0260 N.pl3   
  14 C14           -0.5471     5.6257     0.0344 C.ar    
  15 C15           -1.9509     5.5657     0.0402 C.ar    
  16 N16           -2.2945     4.2514     0.0303 N.2     
  17 C17           -2.6898     6.7512     0.0493 C.ar    
  18 C18           -2.0371     7.9637     0.0524 C.ar    
  19 C19           -0.6513     8.0173     0.0461 C.ar    
  20 C20            0.0931     6.8556     0.0380 C.ar    
  21 H21            2.1491    -0.1391    -0.0199 H       
  22 H22           -2.0976    -2.6555     0.0088 H       
  23 H23           -2.1399    -0.1971     0.0315 H       
  24 H24           -2.0276     1.6347     0.0206 H       
  25 H25            0.8175     4.0170     0.0205 H       
  26 H26           -3.7692     6.7169     0.0535 H       
  27 H27           -2.6088     8.8800     0.0594 H       
  28 H28           -0.1515     8.9746     0.0479 H       
  29 H29            1.1720     6.9042     0.0338 H       
@<TRIPOS>BOND
   1    1    2 1
   2    1    8 2
   3    1    9 am
   4    2    3 ar
   5    2    7 ar
   6    3    4 ar
   7    3   21 1
   8    4    5 ar
   9    4   11 1
  10    5    6 ar
  11    5   10 1
  12    6    7 ar
  13    6   22 1
  14    7   23 1
  15    9   12 1
  16    9   24 1
  17   12   13 1
  18   12   16 2
  19   13   14 1
  20   13   25 1
  21   14   15 ar
  22   14   20 ar
  23   15   16 1
  24   15   17 ar
  25   17   18 ar
  26   17   26 1
  27   18   19 ar
  28   18   27 1
  29   19   20 ar
  30   19   28 1
  31   20   29 1

#	End of record

