#	Name: ASD05320001
#	Creating user name:	WinNT
#	Creation time:	15. 06. 2019 20:59

#	Modifying user name:	WinNT
#	Modification time:	15. 06. 2019 20:59

#	Program:	/corina/corina34_cracker 3.40 0067  02.08.2006

@<TRIPOS>MOLECULE
ASD05320001
  38   39    0    0    0
SMALL
NO_CHARGES


@<TRIPOS>ATOM
   1 O1             0.0021    -0.0041     0.0020 O.co2   
   2 P2            -0.0192     1.5624     0.0106 P.3     
   3 O3             1.4506     2.1047    -0.0005 O.co2   
   4 O4            -0.7769     2.0814    -1.2586 O.co2   
   5 O5            -0.7728     2.0816     1.3353 O.3     
   6 P6            -0.3336     2.2624     2.8736 P.3     
   7 O7            -1.6468     2.3227     3.8031 O.3     
   8 P8            -1.9036     2.1851     5.3865 P.3     
   9 O9             0.5460     1.0666     3.3020 O.co2   
  10 O10            0.4685     3.5736     3.0296 O.co2   
  11 O11           -1.0045     1.0666     5.9588 O.co2   
  12 O12           -1.5659     3.5232     6.0812 O.co2   
  13 O13           -3.4491     1.8188     5.6498 O.3     
  14 C14           -3.9697     1.5278     6.9483 C.3     
  15 C15           -5.4653     1.2234     6.8417 C.3     
  16 C16           -6.0760     1.0286     8.2473 C.3     
  17 C17           -7.1107    -0.1024     8.0536 C.3     
  18 C18           -7.0027    -0.4572     6.5540 C.3     
  19 O19           -5.6750    -0.0380     6.1703 O.3     
  20 N20           -7.1580    -1.9008     6.3590 N.am    
  21 C21           -8.2365    -2.3787     5.6665 C.2     
  22 C22           -6.2356    -2.7436     6.8580 C.2     
  23 N23           -6.3530    -4.0743     6.6933 N.am    
  24 C24           -7.4040    -4.5856     6.0207 C.2     
  25 C25           -8.3795    -3.7095     5.4864 C.2     
  26 O26           -7.5107    -5.7894     5.8705 O.2     
  27 S27           -4.8931    -2.1145     7.7141 S.2     
  28 H28           -3.4514     0.6628     7.3621 H       
  29 H29           -3.8196     2.3878     7.6010 H       
  30 H30           -5.9785     2.0265     6.3130 H       
  31 H31           -5.3078     0.7258     8.9588 H       
  32 H32           -6.5673     1.9428     8.5802 H       
  33 H33           -6.8540    -0.9644     8.6695 H       
  34 H34           -8.1135     0.2527     8.2909 H       
  35 H35           -7.7543     0.0854     5.9806 H       
  36 H36           -8.9704    -1.6951     5.2660 H       
  37 H37           -5.6789    -4.6678     7.0595 H       
  38 H38           -9.2283    -4.1003     4.9450 H       
@<TRIPOS>BOND
   1    1    2 ar
   2    2    3 ar
   3    2    4 ar
   4    2    5 1
   5    5    6 1
   6    6    7 1
   7    6    9 ar
   8    6   10 ar
   9    7    8 1
  10    8   11 ar
  11    8   12 ar
  12    8   13 1
  13   13   14 1
  14   14   15 1
  15   14   28 1
  16   14   29 1
  17   15   16 1
  18   15   19 1
  19   15   30 1
  20   16   17 1
  21   16   31 1
  22   16   32 1
  23   17   18 1
  24   17   33 1
  25   17   34 1
  26   18   20 1
  27   18   19 1
  28   18   35 1
  29   20   21 1
  30   20   22 am
  31   21   25 2
  32   21   36 1
  33   22   23 am
  34   22   27 2
  35   23   24 am
  36   23   37 1
  37   24   25 1
  38   24   26 2
  39   25   38 1

#	End of record

