#	Name: ASD01914509
#	Creating user name:	WinNT
#	Creation time:	15. 06. 2019 20:03

#	Modifying user name:	WinNT
#	Modification time:	15. 06. 2019 20:03

#	Program:	/corina/corina34_cracker 3.40 0067  02.08.2006

@<TRIPOS>MOLECULE
ASD01914509
  68   72    0    0    0
SMALL
NO_CHARGES


@<TRIPOS>ATOM
   1 C1            -2.0734     1.2919    -1.0386 C.ar    
   2 C2            -2.2497    -0.0817    -1.1894 C.ar    
   3 C3            -1.1639    -0.9236    -1.0080 C.ar    
   4 C4             0.0609    -0.3622    -0.6818 C.ar    
   5 C5             0.1635     1.0130    -0.5477 C.ar    
   6 N6            -0.8834     1.7890    -0.7255 N.ar    
   7 C7            -3.2228     2.2061    -1.2353 C.2     
   8 O8            -4.3135     1.7567    -1.5269 O.2     
   9 N9            -3.0586     3.5360    -1.0907 N.am    
  10 C10           -4.1950     4.4398    -1.2852 C.3     
  11 C11           -3.7416     5.8842    -1.0637 C.3     
  12 C12           -4.9285     6.8281    -1.2668 C.3     
  13 C13           -6.0330     6.4812    -0.2665 C.3     
  14 C14           -6.4864     5.0368    -0.4880 C.3     
  15 C15           -7.0221     4.8833    -1.9129 C.3     
  16 C16           -5.9176     5.2302    -2.9132 C.3     
  17 C17           -4.7308     4.2862    -2.7101 C.3     
  18 C18           -5.4642     6.6746    -2.6917 C.3     
  19 C19           -5.2996     4.0929    -0.2849 C.3     
  20 N20           -4.4944     8.2111    -1.0547 N.am    
  21 C21           -5.3773     9.2215    -1.1812 C.2     
  22 C22           -4.9399    10.6150    -0.9675 C.ar    
  23 C23           -5.8538    11.6639    -1.0982 C.ar    
  24 C24           -5.4419    12.9625    -0.8975 C.ar    
  25 C25           -4.1190    13.2306    -0.5659 C.ar    
  26 C26           -3.2068    12.1899    -0.4349 C.ar    
  27 C27           -3.6122    10.8882    -0.6283 C.ar    
  28 O28           -6.5341     8.9852    -1.4713 O.2     
  29 O29           -3.7167    14.5118    -0.3698 O.3     
  30 C30           -2.3435    14.7160    -0.0314 C.3     
  31 C31           -2.0798    16.2122     0.1492 C.3     
  32 N32           -2.8394    16.7073     1.3051 N.3     
  33 C33           -2.2062    16.2976     2.5657 C.3     
  34 C34           -2.9975    18.1665     1.2453 C.3     
  35 H35           -3.2188    -0.4848    -1.4439 H       
  36 H36           -1.2697    -1.9928    -1.1178 H       
  37 H37            0.9265    -0.9907    -0.5333 H       
  38 H38            1.1162     1.4538    -0.2936 H       
  39 H39           -2.1879     3.8946    -0.8579 H       
  40 H40           -3.3600     5.9936    -0.0485 H       
  41 H41           -2.9547     6.1313    -1.7763 H       
  42 H42           -5.6514     6.5906     0.7486 H       
  43 H43           -6.8786     7.1537    -0.4112 H       
  44 H44           -7.2733     4.7897     0.2246 H       
  45 H45           -7.3452     3.8543    -2.0707 H       
  46 H46           -7.8677     5.5557    -2.0576 H       
  47 H47           -6.2993     5.1208    -3.9283 H       
  48 H48           -3.9439     4.5334    -3.4227 H       
  49 H49           -5.0538     3.2572    -2.8679 H       
  50 H50           -6.3098     7.3470    -2.8363 H       
  51 H51           -4.6773     6.9217    -3.4043 H       
  52 H52           -5.6226     3.0639    -0.4427 H       
  53 H53           -4.9179     4.2023     0.7302 H       
  54 H54           -3.5714     8.3997    -0.8232 H       
  55 H55           -6.8817    11.4565    -1.3566 H       
  56 H56           -6.1476    13.7738    -0.9984 H       
  57 H57           -2.1797    12.4023    -0.1774 H       
  58 H58           -2.9038    10.0799    -0.5223 H       
  59 H59           -2.1163    14.1923     0.8972 H       
  60 H60           -1.7109    14.3295    -0.8305 H       
  61 H61           -1.0153    16.3759     0.3169 H       
  62 H62           -2.3929    16.7472    -0.7474 H       
  63 H63           -1.1951    16.7021     2.6127 H       
  64 H64           -2.7888    16.6772     3.4051 H       
  65 H65           -2.1649    15.2095     2.6147 H       
  66 H66           -3.5204    18.4380     0.3283 H       
  67 H67           -3.5739    18.5051     2.1062 H       
  68 H68           -2.0153    18.6392     1.2570 H       
@<TRIPOS>BOND
   1    1    2 ar
   2    1    6 ar
   3    1    7 1
   4    2    3 ar
   5    2   35 1
   6    3    4 ar
   7    3   36 1
   8    4    5 ar
   9    4   37 1
  10    5    6 ar
  11    5   38 1
  12    7    8 2
  13    7    9 am
  14    9   10 1
  15    9   39 1
  16   10   11 1
  17   10   17 1
  18   10   19 1
  19   11   12 1
  20   11   40 1
  21   11   41 1
  22   12   13 1
  23   12   18 1
  24   12   20 1
  25   13   14 1
  26   13   42 1
  27   13   43 1
  28   14   15 1
  29   14   19 1
  30   14   44 1
  31   15   16 1
  32   15   45 1
  33   15   46 1
  34   16   17 1
  35   16   18 1
  36   16   47 1
  37   17   48 1
  38   17   49 1
  39   18   50 1
  40   18   51 1
  41   19   52 1
  42   19   53 1
  43   20   21 am
  44   20   54 1
  45   21   22 1
  46   21   28 2
  47   22   23 ar
  48   22   27 ar
  49   23   24 ar
  50   23   55 1
  51   24   25 ar
  52   24   56 1
  53   25   26 ar
  54   25   29 1
  55   26   27 ar
  56   26   57 1
  57   27   58 1
  58   29   30 1
  59   30   31 1
  60   30   59 1
  61   30   60 1
  62   31   32 1
  63   31   61 1
  64   31   62 1
  65   32   33 1
  66   32   34 1
  67   33   63 1
  68   33   64 1
  69   33   65 1
  70   34   66 1
  71   34   67 1
  72   34   68 1

#	End of record

