#	Name: ASD03430866
#	Creating user name:	WinNT
#	Creation time:	15. 06. 2019 20:41

#	Modifying user name:	WinNT
#	Modification time:	15. 06. 2019 20:41

#	Program:	/corina/corina34_cracker 3.40 0067  02.08.2006

@<TRIPOS>MOLECULE
ASD03430866
  29   32    0    0    0
SMALL
NO_CHARGES


@<TRIPOS>ATOM
   1 C1            -0.0167     1.3799     0.0096 C.ar    
   2 C2             0.0021    -0.0041     0.0020 C.ar    
   3 C3             1.1656     2.0909     0.0022 C.ar    
   4 C4             2.3872     1.4249    -0.0123 C.ar    
   5 C5             2.3963     0.0330    -0.0071 C.ar    
   6 C6             1.2142    -0.6749    -0.0069 C.ar    
   7 O7             3.6539     1.9271    -0.0459 O.3     
   8 C8             3.8410    -0.3867     0.0143 C.3     
   9 C9             4.5802     0.9087     0.3776 C.3     
  10 N10            4.6390    -2.5051     0.3340 N.am    
  11 C11            4.1011    -1.4754     1.0164 C.2     
  12 C12            4.2983    -0.9416    -1.3020 C.ar    
  13 C13            4.3250    -0.4463    -2.5858 C.ar    
  14 C14            4.8223    -1.2218    -3.6185 C.ar    
  15 C15            5.2928    -2.4959    -3.3582 C.ar    
  16 C16            5.2676    -2.9971    -2.0728 C.ar    
  17 C17            4.7681    -2.2240    -1.0283 C.ar    
  18 O18            3.8718    -1.4352     2.2067 O.2     
  19 F19           -1.1571    -0.6980     0.0038 F       
  20 H20           -0.9603     1.9051     0.0170 H       
  21 H21            1.1428     3.1707     0.0072 H       
  22 H22            1.2326    -1.7547    -0.0142 H       
  23 H23            5.5182     0.9860    -0.1722 H       
  24 H24            4.7543     0.9666     1.4520 H       
  25 H25            4.9059    -3.3440     0.7414 H       
  26 H26            3.9571     0.5489    -2.7876 H       
  27 H27            4.8426    -0.8329    -4.6258 H       
  28 H28            5.6811    -3.1011    -4.1641 H       
  29 H29            5.6362    -3.9931    -1.8764 H       
@<TRIPOS>BOND
   1    1    2 ar
   2    1    3 ar
   3    1   20 1
   4    2    6 ar
   5    2   19 1
   6    3    4 ar
   7    3   21 1
   8    4    5 ar
   9    4    7 1
  10    5    6 ar
  11    5    8 1
  12    6   22 1
  13    7    9 1
  14    8    9 1
  15    8   11 1
  16    8   12 1
  17    9   23 1
  18    9   24 1
  19   10   11 am
  20   10   17 1
  21   10   25 1
  22   11   18 2
  23   12   13 ar
  24   12   17 ar
  25   13   14 ar
  26   13   26 1
  27   14   15 ar
  28   14   27 1
  29   15   16 ar
  30   15   28 1
  31   16   17 ar
  32   16   29 1

#	End of record

