#	Name: ASD08150380
#	Creating user name:	WinNT
#	Creation time:	15. 06. 2019 21:15

#	Modifying user name:	WinNT
#	Modification time:	15. 06. 2019 21:15

#	Program:	/corina/corina34_cracker 3.40 0067  02.08.2006

@<TRIPOS>MOLECULE
ASD08150380
  56   57    0    0    0
SMALL
NO_CHARGES


@<TRIPOS>ATOM
   1 C1             0.9625     1.3334     1.0842 C.2     
   2 N2             0.5483     0.0653     0.8926 N.am    
   3 O3             2.0059     1.7130     0.5904 O.2     
   4 O4             0.2175     2.1814     1.8182 O.3     
   5 C5             1.3560    -0.8556     0.0890 C.3     
   6 C6             1.0620    -2.2743     0.5035 C.2     
   7 O7            -0.0267    -2.5612     0.9535 O.2     
   8 C8             1.0136    -0.6754    -1.3913 C.3     
   9 N9             2.0092    -3.2243     0.3739 N.am    
  10 C10            1.7810    -4.4706     0.8334 C.2     
  11 C11            2.8193    -5.5118     0.6914 C.ar    
  12 C12            2.8533    -6.3176    -0.4487 C.ar    
  13 C13            3.8257    -7.2875    -0.5750 C.ar    
  14 C14            4.7663    -7.4631     0.4248 C.ar    
  15 C15            4.7384    -6.6684     1.5569 C.ar    
  16 C16            3.7745    -5.6909     1.6938 C.ar    
  17 O17            0.7212    -4.7378     1.3644 O.2     
  18 N18            3.7496    -4.8377     2.9031 N.pl3   
  19 O19            4.5836    -4.9952     3.7767 O.2     
  20 O20            2.8952    -3.9782     3.0246 O.2     
  21 C21            1.8296    -6.1281    -1.5383 C.3     
  22 C22            3.2331    -2.9157    -0.2393 C.ar    
  23 C23            4.3099    -2.4907     0.5296 C.ar    
  24 C24            5.5149    -2.1874    -0.0787 C.ar    
  25 C25            5.6486    -2.3062    -1.4497 C.ar    
  26 C26            4.5795    -2.7287    -2.2180 C.ar    
  27 C27            3.3731    -3.0398    -1.6163 C.ar    
  28 F28            2.3309    -3.4584    -2.3672 F       
  29 F29            4.1800    -2.3735     1.8692 F       
  30 C30            0.7252     3.5317     1.9827 C.3     
  31 C31            0.8692     4.1932     0.6106 C.3     
  32 C32           -0.2493     4.3421     2.8397 C.3     
  33 C33            2.0907     3.4828     2.6711 C.3     
  34 H34           -0.2846    -0.2376     1.2868 H       
  35 H35            2.4135    -0.6430     0.2458 H       
  36 H36            1.6791    -1.2918    -1.9958 H       
  37 H37           -0.0192    -0.9777    -1.5648 H       
  38 H38            1.1370     0.3717    -1.6679 H       
  39 H39            3.8529    -7.9116    -1.4560 H       
  40 H40            5.5253    -8.2244     0.3210 H       
  41 H41            5.4752    -6.8110     2.3336 H       
  42 H42            2.2001    -5.4029    -2.2628 H       
  43 H43            1.6493    -7.0804    -2.0370 H       
  44 H44            0.8989    -5.7640    -1.1031 H       
  45 H45            6.3522    -1.8570     0.5182 H       
  46 H46            6.5903    -2.0680    -1.9217 H       
  47 H47            4.6877    -2.8203    -3.2886 H       
  48 H48           -0.1036     4.2280     0.1201 H       
  49 H49            1.2503     5.2069     0.7341 H       
  50 H50            1.5635     3.6159     0.0000 H       
  51 H51           -0.3519     3.8708     3.8173 H       
  52 H52            0.1318     5.3558     2.9633 H       
  53 H53           -1.2221     4.3769     2.3493 H       
  54 H54            2.7850     2.9055     2.0605 H       
  55 H55            2.4718     4.4965     2.7946 H       
  56 H56            1.9881     3.0116     3.6486 H       
@<TRIPOS>BOND
   1    1    2 am
   2    1    3 2
   3    1    4 1
   4    2    5 1
   5    2   34 1
   6    4   30 1
   7    5    6 1
   8    5    8 1
   9    5   35 1
  10    6    7 2
  11    6    9 am
  12    8   36 1
  13    8   37 1
  14    8   38 1
  15    9   10 am
  16    9   22 1
  17   10   11 1
  18   10   17 2
  19   11   12 ar
  20   11   16 ar
  21   12   13 ar
  22   12   21 1
  23   13   14 ar
  24   13   39 1
  25   14   15 ar
  26   14   40 1
  27   15   16 ar
  28   15   41 1
  29   16   18 1
  30   18   19 2
  31   18   20 2
  32   21   42 1
  33   21   43 1
  34   21   44 1
  35   22   23 ar
  36   22   27 ar
  37   23   24 ar
  38   23   29 1
  39   24   25 ar
  40   24   45 1
  41   25   26 ar
  42   25   46 1
  43   26   27 ar
  44   26   47 1
  45   27   28 1
  46   30   31 1
  47   30   33 1
  48   30   32 1
  49   31   48 1
  50   31   49 1
  51   31   50 1
  52   32   51 1
  53   32   52 1
  54   32   53 1
  55   33   54 1
  56   33   55 1
  57   33   56 1

#	End of record

