#	Name: ASD01940374
#	Creating user name:	WinNT
#	Creation time:	15. 06. 2019 20:12

#	Modifying user name:	WinNT
#	Modification time:	15. 06. 2019 20:12

#	Program:	/corina/corina34_cracker 3.40 0067  02.08.2006

@<TRIPOS>MOLECULE
ASD01940374
  52   54    0    0    0
SMALL
NO_CHARGES


@<TRIPOS>ATOM
   1 C1             0.4059     1.6472    -0.1573 C.3     
   2 C2             0.5178     0.1229    -0.2267 C.3     
   3 N3            -0.8240    -0.4612    -0.3547 N.3     
   4 C4            -0.7465    -1.8964    -0.6612 C.3     
   5 C5            -2.1596    -2.4824    -0.7076 C.3     
   6 N6            -2.9487    -1.7717    -1.7235 N.3     
   7 C7            -3.0262    -0.3365    -1.4170 C.3     
   8 C8            -1.6130     0.2495    -1.3705 C.3     
   9 C9            -4.2905    -2.3558    -1.8515 C.3     
  10 S10            2.0628     2.3686     0.0007 S.o2    
  11 O11            2.6244     2.0549     1.2678 O.2     
  12 O12            2.8049     2.1803    -1.1964 O.2     
  13 N13            1.7980     4.0020     0.0644 N.am    
  14 C14            1.0306     4.5474     1.1023 C.ar    
  15 C15            0.1955     5.6364     0.8556 C.ar    
  16 C16           -0.5628     6.1725     1.8873 C.ar    
  17 C17           -0.4877     5.6242     3.1582 C.ar    
  18 C18            0.3423     4.5435     3.4006 C.ar    
  19 C19            1.0959     4.0017     2.3751 C.ar    
  20 N20            0.1223     6.1887    -0.4306 N.pl3   
  21 C21           -0.3906     7.4772    -0.6101 C.ar    
  22 C22            0.3597     8.5857    -0.2300 C.ar    
  23 C23           -0.1508     9.8576    -0.4097 C.ar    
  24 C24           -1.4063    10.0281    -0.9662 C.ar    
  25 C25           -2.1538     8.9278    -1.3443 C.ar    
  26 C26           -1.6471     7.6536    -1.1733 C.ar    
  27 I27           -2.1765    11.9576    -1.2361 I       
  28 F28            1.5850     8.4190     0.3141 F       
  29 F29           -1.2259     6.1460     4.1623 F       
  30 F30           -1.3731     7.2279     1.6531 F       
  31 H31           -0.0668     2.0186    -1.0666 H       
  32 H32           -0.1967     1.9284     0.7063 H       
  33 H33            1.1204    -0.1583    -1.0903 H       
  34 H34            0.9905    -0.2485     0.6826 H       
  35 H35           -0.2629    -2.0362    -1.6280 H       
  36 H36           -0.1681    -2.4026     0.1117 H       
  37 H37           -2.1063    -3.5406    -0.9634 H       
  38 H38           -2.6334    -2.3670     0.2672 H       
  39 H39           -3.6045     0.1697    -2.1898 H       
  40 H40           -3.5098    -0.1967    -0.4502 H       
  41 H41           -1.6664     1.3077    -1.1148 H       
  42 H42           -1.1393     0.1340    -2.3454 H       
  43 H43           -4.8092    -2.2876    -0.8952 H       
  44 H44           -4.8531    -1.8111    -2.6097 H       
  45 H45           -4.2048    -3.4022    -2.1445 H       
  46 H46            2.1741     4.5812    -0.6167 H       
  47 H47            0.3986     4.1196     4.3924 H       
  48 H48            1.7388     3.1554     2.5670 H       
  49 H49            0.4274     5.6771    -1.1962 H       
  50 H50            0.4304    10.7189    -0.1151 H       
  51 H51           -3.1335     9.0647    -1.7777 H       
  52 H52           -2.2302     6.7955    -1.4732 H       
@<TRIPOS>BOND
   1    1    2 1
   2    1   10 1
   3    1   31 1
   4    1   32 1
   5    2    3 1
   6    2   33 1
   7    2   34 1
   8    3    4 1
   9    3    8 1
  10    4    5 1
  11    4   35 1
  12    4   36 1
  13    5    6 1
  14    5   37 1
  15    5   38 1
  16    6    7 1
  17    6    9 1
  18    7    8 1
  19    7   39 1
  20    7   40 1
  21    8   41 1
  22    8   42 1
  23    9   43 1
  24    9   44 1
  25    9   45 1
  26   10   11 2
  27   10   12 2
  28   10   13 am
  29   13   14 1
  30   13   46 1
  31   14   15 ar
  32   14   19 ar
  33   15   16 ar
  34   15   20 1
  35   16   17 ar
  36   16   30 1
  37   17   18 ar
  38   17   29 1
  39   18   19 ar
  40   18   47 1
  41   19   48 1
  42   20   21 1
  43   20   49 1
  44   21   22 ar
  45   21   26 ar
  46   22   23 ar
  47   22   28 1
  48   23   24 ar
  49   23   50 1
  50   24   25 ar
  51   24   27 1
  52   25   26 ar
  53   25   51 1
  54   26   52 1

#	End of record

