#	Name: ASD01140672
#	Creating user name:	WinNT
#	Creation time:	15. 06. 2019 19:01

#	Modifying user name:	WinNT
#	Modification time:	15. 06. 2019 19:01

#	Program:	/corina/corina34_cracker 3.40 0067  02.08.2006

@<TRIPOS>MOLECULE
ASD01140672
  37   41    0    0    0
SMALL
NO_CHARGES


@<TRIPOS>ATOM
   1 C1            -0.0184     1.5028     0.0103 C.3     
   2 C2             0.0021    -0.0041     0.0020 C.2     
   3 N3            -1.0411    -0.7960     0.0024 N.2     
   4 C4            -0.5426    -2.0534    -0.0072 C.2     
   5 N5             0.7620    -1.9513    -0.0128 N.2     
   6 O6             1.0882    -0.7831    -0.0130 O.3     
   7 C7            -1.3272    -3.3113    -0.0102 C.2     
   8 N8            -2.6743    -3.4133    -0.0098 N.2     
   9 C9            -3.0097    -4.6732    -0.0104 C.2     
  10 N10           -1.8788    -5.4334    -0.0069 N.pl3   
  11 C11           -0.8257    -4.5673    -0.0198 C.2     
  12 C12            0.6293    -4.9790    -0.0459 C.3     
  13 C13            0.7980    -5.8625    -1.2603 C.2     
  14 C14            1.6530    -5.6967    -2.2862 C.2     
  15 C15            2.6558    -4.5852    -2.4595 C.3     
  16 N16            1.4327    -6.7204    -3.1217 N.2     
  17 N17            0.5036    -7.4657    -2.6369 N.2     
  18 N18            0.0886    -6.9935    -1.5075 N.pl3   
  19 C19           -0.9064    -7.5734    -0.7085 C.ar    
  20 C20           -0.9369    -8.9656    -0.6397 C.ar    
  21 C21           -1.8881    -9.6091     0.1272 C.ar    
  22 F22           -1.9085   -10.9586     0.1879 F       
  23 C23           -2.8209    -8.8689     0.8345 C.ar    
  24 C24           -2.7972    -7.4918     0.7716 C.ar    
  25 C25           -1.8395    -6.8338     0.0090 C.ar    
  26 H26            1.0042     1.8801     0.0026 H       
  27 H27           -0.5455     1.8639    -0.8728 H       
  28 H28           -0.5286     1.8543     0.9071 H       
  29 H29           -4.0208    -5.0530    -0.0133 H       
  30 H30            1.2659    -4.0984    -0.1323 H       
  31 H31            0.8774    -5.5345     0.8585 H       
  32 H32            3.6025    -4.8756    -2.0039 H       
  33 H33            2.8072    -4.3948    -3.5220 H       
  34 H34            2.2831    -3.6812    -1.9778 H       
  35 H35           -0.2108    -9.5453    -1.1903 H       
  36 H36           -3.5658    -9.3699     1.4349 H       
  37 H37           -3.5265    -6.9180     1.3242 H       
@<TRIPOS>BOND
   1    1    2 1
   2    1   26 1
   3    1   27 1
   4    1   28 1
   5    2    6 1
   6    2    3 2
   7    3    4 1
   8    4    5 2
   9    4    7 1
  10    5    6 1
  11    7   11 2
  12    7    8 1
  13    8    9 2
  14    9   10 1
  15    9   29 1
  16   10   25 1
  17   10   11 1
  18   11   12 1
  19   12   13 1
  20   12   30 1
  21   12   31 1
  22   13   18 1
  23   13   14 2
  24   14   15 1
  25   14   16 1
  26   15   32 1
  27   15   33 1
  28   15   34 1
  29   16   17 2
  30   17   18 1
  31   18   19 1
  32   19   25 ar
  33   19   20 ar
  34   20   21 ar
  35   20   35 1
  36   21   22 1
  37   21   23 ar
  38   23   24 ar
  39   23   36 1
  40   24   25 ar
  41   24   37 1

#	End of record

