#	Name: ASD01880412
#	Creating user name:	WinNT
#	Creation time:	15. 06. 2019 19:40

#	Modifying user name:	WinNT
#	Modification time:	15. 06. 2019 19:40

#	Program:	/corina/corina34_cracker 3.40 0067  02.08.2006

@<TRIPOS>MOLECULE
ASD01880412
  45   48    0    0    0
SMALL
NO_CHARGES


@<TRIPOS>ATOM
   1 C1             0.9949    -1.6359    -2.1018 C.ar    
   2 C2             1.8341    -2.6298    -2.5704 C.ar    
   3 C3             3.1995    -2.5158    -2.4036 C.ar    
   4 C4             3.7335    -1.4018    -1.7656 C.ar    
   5 C5             2.8907    -0.4053    -1.3016 C.ar    
   6 C6             1.5225    -0.5264    -1.4694 C.ar    
   7 O7             5.0755    -1.3119    -1.6048 O.3     
   8 C8             5.5918    -0.4911    -0.6589 C.ar    
   9 C9             4.8502     0.5592    -0.1433 C.ar    
  10 C10            3.4446     0.8140    -0.6157 C.3     
  11 C11            6.8854    -0.7133    -0.1998 C.ar    
  12 C12            7.4300     0.1128     0.7626 C.ar    
  13 C13            6.6890     1.1633     1.2720 C.ar    
  14 C14            5.4028     1.3861     0.8188 C.ar    
  15 C15            3.4456     1.9886    -1.5961 C.3     
  16 C16            4.4223     1.6991    -2.7378 C.3     
  17 C17            4.5666     2.9453    -3.6137 C.3     
  18 C18            5.1501     4.2017    -2.9641 C.3     
  19 C19            3.6592     4.1370    -3.3018 C.3     
  20 N20            5.7327     1.3373    -2.1812 N.3     
  21 H21            4.8119     2.7591    -4.6593 H       
  22 C22            3.8977     0.5579    -3.5704 C.2     
  23 O23            2.7090     0.4387    -3.7516 O.2     
  24 O24            4.7509    -0.3263    -4.1108 O.3     
  25 C25            5.5386     4.1170    -1.5105 C.2     
  26 O26            5.2407     3.1425    -0.8613 O.2     
  27 O27            6.2156     5.1243    -0.9370 O.3     
  28 H28           -0.0733    -1.7247    -2.2341 H       
  29 H29            1.4212    -3.4956    -3.0666 H       
  30 H30            3.8541    -3.2933    -2.7688 H       
  31 H31            0.8648     0.2486    -1.1045 H       
  32 H32            2.8166     1.0631     0.2396 H       
  33 H33            7.4649    -1.5337    -0.5967 H       
  34 H34            8.4347    -0.0616     1.1182 H       
  35 H35            7.1160     1.8104     2.0239 H       
  36 H36            4.8264     2.2077     1.2177 H       
  37 H37            2.4430     2.1245    -2.0014 H       
  38 H38            3.7533     2.8957    -1.0760 H       
  39 H39            5.7789     4.8423    -3.5825 H       
  40 H40            3.3072     4.7351    -4.1423 H       
  41 H41            2.9594     4.0333    -2.4726 H       
  42 H42            6.2254     0.7073    -2.7964 H       
  43 H43            6.2840     2.1604    -1.9896 H       
  44 H44            4.3674    -1.0412    -4.6370 H       
  45 H45            6.4426     5.0246    -0.0024 H       
@<TRIPOS>BOND
   1    1    2 ar
   2    1    6 ar
   3    1   28 1
   4    2    3 ar
   5    2   29 1
   6    3    4 ar
   7    3   30 1
   8    4    5 ar
   9    4    7 1
  10    5    6 ar
  11    5   10 1
  12    6   31 1
  13    7    8 1
  14    8    9 ar
  15    8   11 ar
  16    9   10 1
  17    9   14 ar
  18   10   15 1
  19   10   32 1
  20   11   12 ar
  21   11   33 1
  22   12   13 ar
  23   12   34 1
  24   13   14 ar
  25   13   35 1
  26   14   36 1
  27   15   16 1
  28   15   37 1
  29   15   38 1
  30   16   17 1
  31   16   20 1
  32   16   22 1
  33   17   18 1
  34   17   21 1
  35   17   19 1
  36   18   19 1
  37   18   25 1
  38   18   39 1
  39   19   40 1
  40   19   41 1
  41   20   42 1
  42   20   43 1
  43   22   23 2
  44   22   24 1
  45   24   44 1
  46   25   26 2
  47   25   27 1
  48   27   45 1

#	End of record

