#	Name: ASD01900185
#	Creating user name:	WinNT
#	Creation time:	15. 06. 2019 19:51

#	Modifying user name:	WinNT
#	Modification time:	15. 06. 2019 19:51

#	Program:	/corina/corina34_cracker 3.40 0067  02.08.2006

@<TRIPOS>MOLECULE
ASD01900185
  35   38    0    0    0
SMALL
NO_CHARGES


@<TRIPOS>ATOM
   1 N1            -0.0167     1.3828     0.0096 N.pl3   
   2 S2            -1.3083    -1.1014     0.1236 S.3     
   3 C3             0.0621    -0.0019    -0.0073 C.2     
   4 N4             1.1573    -0.6900    -0.1229 N.2     
   5 C5             1.0445    -2.0064    -0.1365 C.2     
   6 C6             2.1184    -3.0212    -0.4008 C.2     
   7 C7             1.8506    -4.1104    -1.2551 C.2     
   8 C8             0.5732    -4.2473    -2.0262 C.3     
   9 C9            -0.6070    -4.6942    -1.1461 C.3     
  10 C10           -0.5419    -3.9274     0.1841 C.3     
  11 C11           -0.2161    -2.4743     0.0363 C.2     
  12 N12            2.9051    -4.8731    -1.2556 N.2     
  13 N13            3.8876    -4.2738    -0.4509 N.pl3   
  14 C14            3.3773    -3.1239     0.0561 C.2     
  15 C15            1.1471     2.1462     0.0087 C.ar    
  16 C16            1.0736     3.5357    -0.0863 C.ar    
  17 C17            2.2612     4.2497    -0.0831 C.ar    
  18 C18            3.4496     3.5390     0.0144 C.ar    
  19 N19            3.4262     2.2239     0.1000 N.ar    
  20 N20            2.3299     1.5566     0.1035 N.ar    
  21 C21            4.7668     4.2712     0.0220 C.3     
  22 H22           -0.8830     1.8193     0.0181 H       
  23 H23            0.3305    -3.2858    -2.4786 H       
  24 H24            0.7180    -4.9806    -2.8195 H       
  25 H25           -1.5462    -4.4706    -1.6521 H       
  26 H26           -0.5365    -5.7651    -0.9553 H       
  27 H27           -1.5063    -4.0176     0.6841 H       
  28 H28            0.2168    -4.3907     0.8149 H       
  29 H29            4.7776    -4.6223    -0.2858 H       
  30 H30            3.8860    -2.4245     0.7029 H       
  31 H31            0.1211     4.0393    -0.1605 H       
  32 H32            2.2621     5.3273    -0.1547 H       
  33 H33            5.0408     4.5155     1.0483 H       
  34 H34            5.5369     3.6382    -0.4188 H       
  35 H35            4.6753     5.1895    -0.5580 H       
@<TRIPOS>BOND
   1    1    3 1
   2    1   15 1
   3    1   22 1
   4    2    3 1
   5    2   11 1
   6    3    4 2
   7    4    5 1
   8    5    6 1
   9    5   11 2
  10    6    7 1
  11    6   14 2
  12    7    8 1
  13    7   12 2
  14    8    9 1
  15    8   23 1
  16    8   24 1
  17    9   10 1
  18    9   25 1
  19    9   26 1
  20   10   11 1
  21   10   27 1
  22   10   28 1
  23   12   13 1
  24   13   14 1
  25   13   29 1
  26   14   30 1
  27   15   16 ar
  28   15   20 ar
  29   16   17 ar
  30   16   31 1
  31   17   18 ar
  32   17   32 1
  33   18   19 ar
  34   18   21 1
  35   19   20 ar
  36   21   33 1
  37   21   34 1
  38   21   35 1

#	End of record

