#	Name: ASD08150716
#	Creating user name:	WinNT
#	Creation time:	15. 06. 2019 21:16

#	Modifying user name:	WinNT
#	Modification time:	15. 06. 2019 21:16

#	Program:	/corina/corina34_cracker 3.40 0067  02.08.2006

@<TRIPOS>MOLECULE
ASD08150716
  48   52    0    0    0
SMALL
NO_CHARGES


@<TRIPOS>ATOM
   1 C1            -0.0158     1.3168     0.0093 C.2     
   2 N2             0.0021    -0.0041     0.0020 N.2     
   3 C3             1.1387    -0.6846    -0.0125 C.2     
   4 C4             2.3424     0.0131    -0.0203 C.2     
   5 C5             2.3160     1.4197    -0.0125 C.2     
   6 N6             1.1169     2.0725     0.0025 N.am    
   7 S7            -1.3640     2.4676     0.0209 S.3     
   8 C8             0.9183     3.4311     0.0113 C.2     
   9 C9            -0.3178     3.8980     0.0239 C.2     
  10 O10            3.3590     2.0528    -0.0187 O.2     
  11 C11            2.0925     4.3757     0.0056 C.3     
  12 C12            3.6328    -0.7145    -0.0361 C.ar    
  13 C13            4.4824    -0.6086    -1.1368 C.ar    
  14 C14            5.6847    -1.2898    -1.1454 C.ar    
  15 C15            6.0451    -2.0766    -0.0629 C.ar    
  16 C16            5.2050    -2.1845     1.0301 C.ar    
  17 C17            4.0049    -1.5032     1.0521 C.ar    
  18 F18            6.5097    -1.1889    -2.2105 F       
  19 C19            1.1279    -2.1915    -0.0200 C.3     
  20 C20            0.5275    -2.7038     1.2907 C.3     
  21 N21            0.3212    -2.6685    -1.1460 N.pl3   
  22 N22           -1.2296    -3.8894    -3.4997 N.2     
  23 C23           -1.5833    -4.7570    -4.4021 C.2     
  24 N24           -0.8102    -5.8766    -4.3001 N.pl3   
  25 C25            0.0708    -5.6753    -3.2679 C.ar    
  26 N26            1.0425    -6.3921    -2.7122 N.ar    
  27 C27            1.7387    -5.9088    -1.6960 C.ar    
  28 N28            1.5080    -4.7048    -1.1884 N.ar    
  29 C29            0.5554    -3.9221    -1.6829 C.ar    
  30 C30           -0.2098    -4.3949    -2.7629 C.ar    
  31 N31            2.7432    -6.6863    -1.1435 N.pl3   
  32 H32           -0.6257     4.9332     0.0306 H       
  33 H33            2.3664     4.6087    -1.0234 H       
  34 H34            1.8225     5.2942     0.5267 H       
  35 H35            2.9380     3.9073     0.5095 H       
  36 H36            4.2013     0.0041    -1.9806 H       
  37 H37            6.9854    -2.6079    -0.0733 H       
  38 H38            5.4908    -2.7994     1.8707 H       
  39 H39            3.3523    -1.5849     1.9088 H       
  40 H40            2.1481    -2.5617    -0.1214 H       
  41 H41            1.1277    -2.3489     2.1285 H       
  42 H42           -0.4928    -2.3337     1.3921 H       
  43 H43            0.5197    -3.7937     1.2853 H       
  44 H44           -0.3771    -2.1056    -1.5152 H       
  45 H45           -2.3724    -4.6124    -5.1252 H       
  46 H46           -0.8722    -6.6695    -4.8554 H       
  47 H47            2.9260    -7.5689    -1.5020 H       
  48 H48            3.2637    -6.3482    -0.3981 H       
@<TRIPOS>BOND
   1    1    2 2
   2    1    6 1
   3    1    7 1
   4    2    3 1
   5    3    4 2
   6    3   19 1
   7    4    5 1
   8    4   12 1
   9    5    6 am
  10    5   10 2
  11    6    8 1
  12    7    9 1
  13    8    9 2
  14    8   11 1
  15    9   32 1
  16   11   33 1
  17   11   34 1
  18   11   35 1
  19   12   13 ar
  20   12   17 ar
  21   13   14 ar
  22   13   36 1
  23   14   15 ar
  24   14   18 1
  25   15   16 ar
  26   15   37 1
  27   16   17 ar
  28   16   38 1
  29   17   39 1
  30   19   20 1
  31   19   21 1
  32   19   40 1
  33   20   41 1
  34   20   42 1
  35   20   43 1
  36   21   29 1
  37   21   44 1
  38   22   23 2
  39   22   30 1
  40   23   24 1
  41   23   45 1
  42   24   25 1
  43   24   46 1
  44   25   26 ar
  45   25   30 ar
  46   26   27 ar
  47   27   28 ar
  48   27   31 1
  49   28   29 ar
  50   29   30 ar
  51   31   47 1
  52   31   48 1

#	End of record

