#	Name: ASD08178201
#	Creating user name:	WinNT
#	Creation time:	15. 06. 2019 21:18

#	Modifying user name:	WinNT
#	Modification time:	15. 06. 2019 21:18

#	Program:	/corina/corina34_cracker 3.40 0067  02.08.2006

@<TRIPOS>MOLECULE
ASD08178201
  78   81    0    0    0
SMALL
NO_CHARGES


@<TRIPOS>ATOM
   1 C1             2.4193     2.6810    -1.8045 C.ar    
   2 C2             2.2684     1.1841    -1.7176 C.3     
   3 C3             1.5590     0.8179    -0.4124 C.3     
   4 C4             1.4058    -0.7019    -0.3242 C.3     
   5 C5             0.6964    -1.0680     0.9810 C.3     
   6 C6             0.5455    -2.5649     1.0679 C.2     
   7 N7             1.3935    -3.3888     1.5967 N.2     
   8 N8             1.0834    -4.6124     1.5712 N.2     
   9 C9            -0.0484    -4.9363     1.0222 C.2     
  10 S10           -0.8213    -3.5090     0.4744 S.3     
  11 N11           -0.5518    -6.2273     0.9038 N.am    
  12 C12            0.1526    -7.2718     1.3828 C.2     
  13 C13           -0.3929    -8.6708     1.2545 C.3     
  14 O14            1.2254    -7.0859     1.9170 O.2     
  15 C15            0.5795    -9.6471     1.8646 C.ar    
  16 C16            3.6734     3.2416    -1.9982 C.ar    
  17 C17            3.7653     4.6232    -2.0719 C.ar    
  18 C18            2.5909     5.3628    -1.9467 C.ar    
  19 N19            1.4377     4.7372    -1.7637 N.ar    
  20 N20            1.3587     3.4576    -1.7018 N.ar    
  21 N21            2.6296     6.7551    -2.0133 N.am    
  22 C22            1.4822     7.4622    -2.0058 C.2     
  23 C23            1.5254     8.9680    -1.9639 C.3     
  24 O24            0.4150     6.8867    -2.0326 O.2     
  25 C25            0.1196     9.5111    -1.9635 C.ar    
  26 C26           -0.5375     9.7272    -0.7667 C.ar    
  27 C27           -1.8270    10.2253    -0.7664 C.ar    
  28 C28           -2.4592    10.5076    -1.9628 C.ar    
  29 C29           -1.8017    10.2923    -3.1596 C.ar    
  30 C30           -0.5106     9.7983    -3.1598 C.ar    
  31 C31            0.4770    -9.9776     3.2034 C.ar    
  32 C32            1.3668   -10.8720     3.7655 C.ar    
  33 C33            2.3648   -11.4399     2.9845 C.ar    
  34 C34            2.4648   -11.1062     1.6403 C.ar    
  35 C35            1.5690   -10.2148     1.0830 C.ar    
  36 N36            3.2682   -12.3462     3.5512 N.am    
  37 C37            2.8667   -13.1680     4.5411 C.2     
  38 O38            3.7594   -13.9655     5.1576 O.3     
  39 C39            3.2563   -14.8245     6.2147 C.3     
  40 O40            1.6992   -13.1892     4.8772 O.2     
  41 C41            2.1908   -15.7632     5.6452 C.3     
  42 C42            4.4076   -15.6503     6.7921 C.3     
  43 C43            2.6404   -13.9650     7.3205 C.3     
  44 H44            1.6797     0.8286    -2.5633 H       
  45 H45            3.2534     0.7178    -1.7390 H       
  46 H46            2.1477     1.1734     0.4332 H       
  47 H47            0.5740     1.2842    -0.3911 H       
  48 H48            0.8171    -1.0574    -1.1699 H       
  49 H49            2.3908    -1.1682    -0.3456 H       
  50 H50            1.2851    -0.7125     1.8266 H       
  51 H51           -0.2886    -0.6017     1.0023 H       
  52 H52           -1.4098    -6.3760     0.4766 H       
  53 H53           -1.3487    -8.7371     1.7743 H       
  54 H54           -0.5351    -8.9101     0.2006 H       
  55 H55            4.5522     2.6204    -2.0885 H       
  56 H56            4.7173     5.1109    -2.2214 H       
  57 H57            3.4822     7.2147    -2.0651 H       
  58 H58            2.0402     9.2917    -1.0593 H       
  59 H59            2.0586     9.3406    -2.8385 H       
  60 H60           -0.0436     9.5066     0.1680 H       
  61 H61           -2.3406    10.3935     0.1686 H       
  62 H62           -3.4669    10.8961    -1.9626 H       
  63 H63           -2.2958    10.5126    -4.0944 H       
  64 H64            0.0030     9.6301    -4.0948 H       
  65 H65           -0.2994    -9.5356     3.8102 H       
  66 H66            1.2866   -11.1292     4.8113 H       
  67 H67            3.2401   -11.5459     1.0304 H       
  68 H68            1.6460    -9.9552     0.0375 H       
  69 H69            4.1832   -12.3828     3.2315 H       
  70 H70            2.6295   -16.3756     4.8574 H       
  71 H71            1.8131   -16.4080     6.4387 H       
  72 H72            1.3706   -15.1749     5.2338 H       
  73 H73            5.1667   -14.9815     7.1978 H       
  74 H74            4.0299   -16.2951     7.5857 H       
  75 H75            4.8463   -16.2626     6.0043 H       
  76 H76            1.8202   -13.3766     6.9091 H       
  77 H77            2.2627   -14.6098     8.1140 H       
  78 H78            3.3995   -13.2962     7.7262 H       
@<TRIPOS>BOND
   1    1    2 1
   2    1   16 ar
   3    1   20 ar
   4    2    3 1
   5    2   44 1
   6    2   45 1
   7    3    4 1
   8    3   46 1
   9    3   47 1
  10    4    5 1
  11    4   48 1
  12    4   49 1
  13    5    6 1
  14    5   50 1
  15    5   51 1
  16    6    7 2
  17    6   10 1
  18    7    8 1
  19    8    9 2
  20    9   10 1
  21    9   11 1
  22   11   12 am
  23   11   52 1
  24   12   13 1
  25   12   14 2
  26   13   15 1
  27   13   53 1
  28   13   54 1
  29   15   31 ar
  30   15   35 ar
  31   16   17 ar
  32   16   55 1
  33   17   18 ar
  34   17   56 1
  35   18   19 ar
  36   18   21 1
  37   19   20 ar
  38   21   22 am
  39   21   57 1
  40   22   23 1
  41   22   24 2
  42   23   25 1
  43   23   58 1
  44   23   59 1
  45   25   26 ar
  46   25   30 ar
  47   26   27 ar
  48   26   60 1
  49   27   28 ar
  50   27   61 1
  51   28   29 ar
  52   28   62 1
  53   29   30 ar
  54   29   63 1
  55   30   64 1
  56   31   32 ar
  57   31   65 1
  58   32   33 ar
  59   32   66 1
  60   33   34 ar
  61   33   36 1
  62   34   35 ar
  63   34   67 1
  64   35   68 1
  65   36   37 am
  66   36   69 1
  67   37   38 1
  68   37   40 2
  69   38   39 1
  70   39   41 1
  71   39   42 1
  72   39   43 1
  73   41   70 1
  74   41   71 1
  75   41   72 1
  76   42   73 1
  77   42   74 1
  78   42   75 1
  79   43   76 1
  80   43   77 1
  81   43   78 1

#	End of record

