#	Name: ASD01881401
#	Creating user name:	WinNT
#	Creation time:	15. 06. 2019 19:42

#	Modifying user name:	WinNT
#	Modification time:	15. 06. 2019 19:42

#	Program:	/corina/corina34_cracker 3.40 0067  02.08.2006

@<TRIPOS>MOLECULE
ASD01881401
  43   47    0    0    0
SMALL
NO_CHARGES


@<TRIPOS>ATOM
   1 Cl1            0.1191    -2.0479     2.4469 Cl      
   2 C2            -0.0166     1.3744     0.0096 C.ar    
   3 C3             0.0021    -0.0041     0.0020 C.ar    
   4 C4             1.1765     2.0871     0.0020 C.ar    
   5 C5             2.3931     1.4115    -0.0133 C.ar    
   6 C6             2.4170     0.0330    -0.0209 C.ar    
   7 C7             1.2198    -0.6842    -0.0133 C.ar    
   8 C8             1.2423    -2.1652    -0.0210 C.2     
   9 C9             0.7585    -2.8769     1.0621 C.2     
  10 C10            1.7538    -2.8670    -1.1399 C.2     
  11 C11            1.7725    -4.2128    -1.1453 C.2     
  12 N12            1.3019    -4.9238    -0.0786 N.pl3   
  13 C13            0.7930    -4.2822     1.0245 C.2     
  14 C14            1.1999    -6.2556     0.1863 C.2     
  15 N15            0.6680    -6.3814     1.3748 N.2     
  16 N16            0.4228    -5.2234     1.8793 N.2     
  17 C17            1.6222    -7.3799    -0.7240 C.3     
  18 C18            3.0813    -7.7438    -0.4420 C.3     
  19 Cl19           3.8815     2.3050    -0.0232 Cl      
  20 N20            1.1546     3.4829     0.0093 N.pl3   
  21 C21           -0.1255     4.1953     0.0249 C.3     
  22 C22            3.6657    -8.9467    -1.1852 C.3     
  23 C23            4.0936    -7.5287    -1.5688 C.3     
  24 C24           -0.1392     5.6107     0.6058 C.3     
  25 C25           -0.2737     5.4020    -0.9039 C.3     
  26 H26           -0.9595     1.9011     0.0169 H       
  27 H27           -0.9256    -0.5571     0.0083 H       
  28 H28            3.3611    -0.4913    -0.0332 H       
  29 H29            2.1299    -2.3202    -1.9919 H       
  30 H30            2.1643    -4.7371    -2.0044 H       
  31 H31            0.9897    -8.2494    -0.5451 H       
  32 H32            1.5207    -7.0642    -1.7624 H       
  33 H33            3.4201    -7.5701     0.5794 H       
  34 H34            1.9869     3.9811     0.0041 H       
  35 H35           -1.0066     3.5752     0.1895 H       
  36 H36            4.3894    -9.5640    -0.6530 H       
  37 H37            3.0108    -9.4787    -1.8751 H       
  38 H38            3.7201    -7.1279    -2.5112 H       
  39 H39            5.0987    -7.2132    -1.2890 H       
  40 H40           -1.0295     5.9218     1.1522 H       
  41 H41            0.8042     6.0118     0.9764 H       
  42 H42            0.5811     5.6659    -1.5266 H       
  43 H43           -1.2526     5.5759    -1.3507 H       
@<TRIPOS>BOND
   1    1    9 1
   2    2    3 ar
   3    2    4 ar
   4    2   26 1
   5    3    7 ar
   6    3   27 1
   7    4    5 ar
   8    4   20 1
   9    5    6 ar
  10    5   19 1
  11    6    7 ar
  12    6   28 1
  13    7    8 1
  14    8    9 2
  15    8   10 1
  16    9   13 1
  17   10   11 2
  18   10   29 1
  19   11   12 1
  20   11   30 1
  21   12   13 1
  22   12   14 1
  23   13   16 2
  24   14   15 2
  25   14   17 1
  26   15   16 1
  27   17   18 1
  28   17   31 1
  29   17   32 1
  30   18   22 1
  31   18   23 1
  32   18   33 1
  33   20   21 1
  34   20   34 1
  35   21   24 1
  36   21   25 1
  37   21   35 1
  38   22   23 1
  39   22   36 1
  40   22   37 1
  41   23   38 1
  42   23   39 1
  43   24   25 1
  44   24   40 1
  45   24   41 1
  46   25   42 1
  47   25   43 1

#	End of record

