#	Name: ASD01028806
#	Creating user name:	WinNT
#	Creation time:	15. 06. 2019 18:58

#	Modifying user name:	WinNT
#	Modification time:	15. 06. 2019 18:58

#	Program:	/corina/corina34_cracker 3.40 0067  02.08.2006

@<TRIPOS>MOLECULE
ASD01028806
  44   48    0    0    0
SMALL
NO_CHARGES


@<TRIPOS>ATOM
   1 N1            -0.0155     1.2942     0.0092 N.2     
   2 C2             0.0021    -0.0041     0.0020 C.2     
   3 N3             1.1467    -0.7358    -0.0128 N.am    
   4 C4             2.3546    -0.1253    -0.0211 C.2     
   5 C5             2.3699     1.3451    -0.0133 C.ar    
   6 C6             3.5600     2.0697    -0.0212 C.ar    
   7 C7             3.5163     3.4466    -0.0139 C.ar    
   8 C8             2.2987     4.1146     0.0017 C.ar    
   9 C9             1.1117     3.4173     0.0102 C.ar    
  10 C10            1.1299     2.0210     0.0021 C.ar    
  11 O11            3.3880    -0.7684    -0.0340 O.2     
  12 C12            4.8007     4.2349    -0.0224 C.3     
  13 C13            5.4665     5.4045    -3.4124 C.2     
  14 C14            5.2830     6.3745    -4.4160 C.2     
  15 C15            4.5125     7.4627    -4.1524 C.2     
  16 C16            3.9076     7.6115    -2.8863 C.2     
  17 N17            4.0777     6.7058    -1.9487 N.2     
  18 N18            4.8638     5.5771    -2.1889 N.pl3   
  19 N19            5.9788     3.7410    -2.1867 N.2     
  20 N20            6.1321     4.2626    -3.3536 N.2     
  21 C21            5.2150     4.5048    -1.4459 C.2     
  22 C22            3.0690     8.8039    -2.6102 C.ar    
  23 C23            2.4666     8.9617    -1.3635 C.ar    
  24 C24            1.6875    10.0728    -1.1122 C.ar    
  25 C25            1.5038    11.0286    -2.0951 C.ar    
  26 C26            2.0990    10.8768    -3.3345 C.ar    
  27 C27            2.8855     9.7730    -3.5946 C.ar    
  28 C28            1.0728    -2.1989    -0.0195 C.3     
  29 H29           -0.9416    -0.5292     0.0086 H       
  30 H30            4.5098     1.5557    -0.0326 H       
  31 H31            2.2828     5.1944     0.0077 H       
  32 H32            0.1710     3.9476     0.0224 H       
  33 H33            4.6499     5.1809     0.4977 H       
  34 H34            5.5808     3.6638     0.4811 H       
  35 H35            5.7490     6.2557    -5.3830 H       
  36 H36            4.3632     8.2147    -4.9131 H       
  37 H37            2.6089     8.2157    -0.5956 H       
  38 H38            1.2202    10.1961    -0.1464 H       
  39 H39            0.8930    11.8963    -1.8942 H       
  40 H40            1.9516    11.6258    -4.0985 H       
  41 H41            3.3537     9.6579    -4.5611 H       
  42 H42            0.0281    -2.5100    -0.0109 H       
  43 H43            1.5589    -2.5831    -0.9162 H       
  44 H44            1.5763    -2.5921     0.8636 H       
@<TRIPOS>BOND
   1    1    2 2
   2    1   10 1
   3    2    3 1
   4    2   29 1
   5    3    4 am
   6    3   28 1
   7    4    5 1
   8    4   11 2
   9    5    6 ar
  10    5   10 ar
  11    6    7 ar
  12    6   30 1
  13    7    8 ar
  14    7   12 1
  15    8    9 ar
  16    8   31 1
  17    9   10 ar
  18    9   32 1
  19   12   21 1
  20   12   33 1
  21   12   34 1
  22   13   14 1
  23   13   18 1
  24   13   20 2
  25   14   15 2
  26   14   35 1
  27   15   16 1
  28   15   36 1
  29   16   17 2
  30   16   22 1
  31   17   18 1
  32   18   21 1
  33   19   20 1
  34   19   21 2
  35   22   23 ar
  36   22   27 ar
  37   23   24 ar
  38   23   37 1
  39   24   25 ar
  40   24   38 1
  41   25   26 ar
  42   25   39 1
  43   26   27 ar
  44   26   40 1
  45   27   41 1
  46   28   42 1
  47   28   43 1
  48   28   44 1

#	End of record

