#	Name: ASD01920014
#	Creating user name:	WinNT
#	Creation time:	15. 06. 2019 20:11

#	Modifying user name:	WinNT
#	Modification time:	15. 06. 2019 20:11

#	Program:	/corina/corina34_cracker 3.40 0067  02.08.2006

@<TRIPOS>MOLECULE
ASD01920014
  41   44    0    0    0
SMALL
NO_CHARGES


@<TRIPOS>ATOM
   1 N1            -0.0175     1.3627     0.1055 N.am    
   2 C2             0.0023    -0.0037    -0.0000 C.2     
   3 C3            -1.1521    -0.7275    -0.0885 C.2     
   4 C4            -2.3851    -0.0665    -0.0713 C.2     
   5 C5            -2.3958     1.3364     0.0377 C.2     
   6 C6            -1.1848     2.0416     0.1311 C.2     
   7 O7            -3.6723    -0.4338    -0.1353 O.3     
   8 N8            -4.4362     0.5027    -0.0833 N.2     
   9 C9            -3.8260     1.6591     0.0236 C.2     
  10 C10           -4.4483     3.0027     0.1112 C.ar    
  11 O11           -1.1870     3.2570     0.2262 O.2     
  12 C12            1.2465     2.0974     0.1980 C.3     
  13 C13            1.2998    -0.7079    -0.0188 C.ar    
  14 C14           -5.6185     3.2789    -0.5936 C.ar    
  15 C15           -6.1931     4.5307    -0.5084 C.ar    
  16 C16           -5.6098     5.5105     0.2747 C.ar    
  17 C17           -4.4482     5.2422     0.9761 C.ar    
  18 C18           -3.8682     3.9919     0.9032 C.ar    
  19 C19            1.5166    -1.7994     0.8258 C.ar    
  20 C20            2.7286    -2.4541     0.8048 C.ar    
  21 C21            3.7345    -2.0303    -0.0548 C.ar    
  22 C22            3.5231    -0.9450    -0.8961 C.ar    
  23 C23            2.3120    -0.2883    -0.8854 C.ar    
  24 O24            4.9277    -2.6784    -0.0724 O.3     
  25 C25            5.9176    -2.1904    -0.9801 C.3     
  26 H26           -1.1137    -1.8036    -0.1717 H       
  27 H27            1.6347     2.2800    -0.8041 H       
  28 H28            1.0774     3.0494     0.7012 H       
  29 H29            1.9678     1.5095     0.7655 H       
  30 H30           -6.0745     2.5147    -1.2056 H       
  31 H31           -7.0997     4.7460    -1.0545 H       
  32 H32           -6.0629     6.4888     0.3385 H       
  33 H33           -3.9968     6.0110     1.5857 H       
  34 H34           -2.9612     3.7835     1.4512 H       
  35 H35            0.7353    -2.1293     1.4945 H       
  36 H36            2.8972    -3.2978     1.4576 H       
  37 H37            4.3079    -0.6182    -1.5622 H       
  38 H38            2.1485     0.5553    -1.5396 H       
  39 H39            5.5368    -2.2501    -1.9997 H       
  40 H40            6.1512    -1.1532    -0.7397 H       
  41 H41            6.8201    -2.7955    -0.8933 H       
@<TRIPOS>BOND
   1    1    2 1
   2    1   12 1
   3    1    6 am
   4    2    3 2
   5    2   13 1
   6    3    4 1
   7    3   26 1
   8    4    5 2
   9    4    7 1
  10    5    6 1
  11    5    9 1
  12    6   11 2
  13    7    8 1
  14    8    9 2
  15    9   10 1
  16   10   14 ar
  17   10   18 ar
  18   12   27 1
  19   12   28 1
  20   12   29 1
  21   13   19 ar
  22   13   23 ar
  23   14   15 ar
  24   14   30 1
  25   15   16 ar
  26   15   31 1
  27   16   17 ar
  28   16   32 1
  29   17   18 ar
  30   17   33 1
  31   18   34 1
  32   19   20 ar
  33   19   35 1
  34   20   21 ar
  35   20   36 1
  36   21   22 ar
  37   21   24 1
  38   22   23 ar
  39   22   37 1
  40   23   38 1
  41   24   25 1
  42   25   39 1
  43   25   40 1
  44   25   41 1

#	End of record

