#	Name: ASD02038848
#	Creating user name:	WinNT
#	Creation time:	15. 06. 2019 20:17

#	Modifying user name:	WinNT
#	Modification time:	15. 06. 2019 20:17

#	Program:	/corina/corina34_cracker 3.40 0067  02.08.2006

@<TRIPOS>MOLECULE
ASD02038848
  53   56    0    0    0
SMALL
NO_CHARGES


@<TRIPOS>ATOM
   1 C1            -0.7379     1.2360    -0.3564 C.2     
   2 C2            -0.2390    -0.1484    -0.4272 C.2     
   3 N3             0.9659    -0.4579     0.0914 N.am    
   4 C4             1.3015    -1.8540     0.3821 C.3     
   5 C5             2.2849    -2.3580    -0.6426 C.ar    
   6 C6             1.9399     0.6018     0.3645 C.3     
   7 C7             1.8044     1.7060    -0.6884 C.3     
   8 C8             2.7707     2.8443    -0.3501 C.3     
   9 O9             2.4887     3.3322     0.9632 O.3     
  10 C10            2.6451     2.3554     1.9945 C.3     
  11 C11            1.6738     1.1976     1.7504 C.3     
  12 O12           -0.9145    -1.0121    -0.9537 O.2     
  13 N13           -0.3536     2.1827     0.5375 N.2     
  14 C14           -1.0071     3.2818     0.2937 C.2     
  15 N15           -1.8338     3.0792    -0.7650 N.pl3   
  16 C16           -1.6659     1.8019    -1.1808 C.2     
  17 C17           -2.7398     4.0678    -1.3551 C.3     
  18 C18            1.9147    -1.9478     1.7555 C.ar    
  19 C19            1.3199    -2.7321     2.7260 C.ar    
  20 C20            2.2555    -3.6830    -1.0356 C.ar    
  21 C21            3.2127    -1.4941    -1.1936 C.ar    
  22 C22            4.1148    -1.9564    -2.1335 C.ar    
  23 C23            4.0893    -3.2827    -2.5221 C.ar    
  24 C24            3.1576    -4.1453    -1.9755 C.ar    
  25 C25            3.0752    -1.2539     2.0431 C.ar    
  26 C26            3.6377    -1.3399     3.3029 C.ar    
  27 C27            3.0395    -2.1194     4.2752 C.ar    
  28 C28            1.8823    -2.8181     3.9858 C.ar    
  29 H29            0.3965    -2.4604     0.3461 H       
  30 H30            2.9477     0.1880     0.3314 H       
  31 H31            2.0463     1.3031    -1.6719 H       
  32 H32            0.7822     2.0844    -0.6900 H       
  33 H33            3.7954     2.4747    -0.3883 H       
  34 H34            2.6481     3.6517    -1.0719 H       
  35 H35            3.6682     1.9794     1.9870 H       
  36 H36            2.4322     2.8108     2.9617 H       
  37 H37            0.6490     1.5656     1.7980 H       
  38 H38            1.8223     0.4311     2.5110 H       
  39 H39           -0.9083     4.2055     0.8446 H       
  40 H40           -2.1747     1.3207    -2.0030 H       
  41 H41           -2.2190     4.6140    -2.1416 H       
  42 H42           -3.6062     3.5595    -1.7783 H       
  43 H43           -3.0682     4.7652    -0.5846 H       
  44 H44            0.4155    -3.2775     2.5000 H       
  45 H45            1.5279    -4.3570    -0.6082 H       
  46 H46            3.2326    -0.4578    -0.8900 H       
  47 H47            4.8392    -1.2812    -2.5646 H       
  48 H48            4.7938    -3.6439    -3.2567 H       
  49 H49            3.1376    -5.1816    -2.2791 H       
  50 H50            3.5426    -0.6449     1.2835 H       
  51 H51            4.5448    -0.7984     3.5274 H       
  52 H52            3.4791    -2.1869     5.2594 H       
  53 H53            1.4149    -3.4271     4.7454 H       
@<TRIPOS>BOND
   1    1    2 1
   2    1   13 1
   3    1   16 2
   4    2    3 am
   5    2   12 2
   6    3    4 1
   7    3    6 1
   8    4    5 1
   9    4   18 1
  10    4   29 1
  11    5   20 ar
  12    5   21 ar
  13    6    7 1
  14    6   11 1
  15    6   30 1
  16    7    8 1
  17    7   31 1
  18    7   32 1
  19    8    9 1
  20    8   33 1
  21    8   34 1
  22    9   10 1
  23   10   11 1
  24   10   35 1
  25   10   36 1
  26   11   37 1
  27   11   38 1
  28   13   14 2
  29   14   15 1
  30   14   39 1
  31   15   16 1
  32   15   17 1
  33   16   40 1
  34   17   41 1
  35   17   42 1
  36   17   43 1
  37   18   19 ar
  38   18   25 ar
  39   19   28 ar
  40   19   44 1
  41   20   24 ar
  42   20   45 1
  43   21   22 ar
  44   21   46 1
  45   22   23 ar
  46   22   47 1
  47   23   24 ar
  48   23   48 1
  49   24   49 1
  50   25   26 ar
  51   25   50 1
  52   26   27 ar
  53   26   51 1
  54   27   28 ar
  55   27   52 1
  56   28   53 1

#	End of record

