#	Name: ASD05720211
#	Creating user name:	WinNT
#	Creation time:	15. 06. 2019 21:02

#	Modifying user name:	WinNT
#	Modification time:	15. 06. 2019 21:02

#	Program:	/corina/corina34_cracker 3.40 0067  02.08.2006

@<TRIPOS>MOLECULE
ASD05720211
  57   60    0    0    0
SMALL
NO_CHARGES


@<TRIPOS>ATOM
   1 Na1            0.0000     0.0000     0.0000 Du      
   2 Na2            5.0000     5.0000     5.0000 Du      
   3 P3            10.7577    11.5665    16.1433 P.3     
   4 O4            10.7790    10.0000    16.1347 O.co2   
   5 O5            12.2682    12.1238    16.1319 O.3     
   6 O6            10.0000    12.0855    14.8741 O.co2   
   7 O7            10.0244    12.0717    17.4323 O.co2   
   8 C8            12.5836    13.5175    16.1364 C.3     
   9 N9            14.0384    13.6890    16.1234 N.pl3   
  10 N10           14.7409    14.9050    16.1237 N.2     
  11 C11           16.0211    14.6023    16.1102 C.2     
  12 N12           16.1465    13.2680    16.1015 N.2     
  13 C13           14.9635    12.7127    16.1148 C.2     
  14 C14           17.1396    15.5757    16.1045 C.ar    
  15 C15           18.4608    15.1216    16.0898 C.ar    
  16 C16           19.5006    16.0277    16.0845 C.ar    
  17 C17           19.2317    17.3973    16.0939 C.ar    
  18 C18           17.9109    17.8492    16.1086 C.ar    
  19 C19           16.8727    16.9443    16.1081 C.ar    
  20 C20           20.4891    19.4680    15.2291 C.2     
  21 N21           19.7315    19.9387    14.2336 N.2     
  22 C22           20.0904    21.0184    13.5650 C.2     
  23 C23           21.2849    21.6895    13.8971 C.2     
  24 C24           22.0538    21.2159    14.9038 C.2     
  25 N25           21.6555    20.0954    15.5784 N.pl3   
  26 N26           22.2258    19.3842    16.6401 N.2     
  27 C27           21.4582    18.3656    16.9405 C.2     
  28 C28           20.3468    18.3705    16.0888 C.2     
  29 O29           18.6182    22.8196    10.8532 O.3     
  30 C30           19.5471    22.5744    11.7840 C.2     
  31 N31           19.2912    21.4935    12.5336 N.am    
  32 C32           18.0259    20.8921    12.0853 C.3     
  33 C33           17.5721    21.8086    10.9327 C.3     
  34 O34           20.5330    23.2680    11.9356 O.2     
  35 C35           17.0114    20.9012    13.1996 C.ar    
  36 C36           15.9891    19.9706    13.1996 C.ar    
  37 C37           15.0607    19.9865    14.2285 C.ar    
  38 C38           15.1959    20.9438    15.2255 C.ar    
  39 C39           16.2460    21.8431    15.1577 C.ar    
  40 N40           17.1129    21.7931    14.1653 N.ar    
  41 F41           14.3139    20.9970    16.2475 F       
  42 F42           18.7196    13.7957    16.0812 F       
  43 H43           12.1541    13.9901    15.2530 H       
  44 H44           12.1711    13.9805    17.0328 H       
  45 H45           14.7631    11.6514    16.1164 H       
  46 H46           20.5222    15.6776    16.0735 H       
  47 H47           17.7031    18.9090    16.1159 H       
  48 H48           15.8512    17.2949    16.1150 H       
  49 H49           21.5833    22.5731    13.3524 H       
  50 H50           22.9723    21.7170    15.1716 H       
  51 H51           21.6495    17.6428    17.7199 H       
  52 H52           18.1911    19.8768    11.7248 H       
  53 H53           16.6122    22.2694    11.1662 H       
  54 H54           17.5110    21.2479    10.0000 H       
  55 H55           15.9147    19.2404    12.4074 H       
  56 H56           14.2514    19.2718    14.2541 H       
  57 H57           16.3591    22.5911    15.9285 H       
@<TRIPOS>BOND
   1    3    4 ar
   2    3    5 1
   3    3    6 ar
   4    3    7 ar
   5    5    8 1
   6    8    9 1
   7    8   43 1
   8    8   44 1
   9    9   10 1
  10    9   13 1
  11   10   11 2
  12   11   12 1
  13   11   14 1
  14   12   13 2
  15   13   45 1
  16   14   15 ar
  17   14   19 ar
  18   15   16 ar
  19   15   42 1
  20   16   17 ar
  21   16   46 1
  22   17   18 ar
  23   17   28 1
  24   18   19 ar
  25   18   47 1
  26   19   48 1
  27   20   21 1
  28   20   25 1
  29   20   28 2
  30   21   22 2
  31   22   23 1
  32   22   31 1
  33   23   24 2
  34   23   49 1
  35   24   25 1
  36   24   50 1
  37   25   26 1
  38   26   27 2
  39   27   28 1
  40   27   51 1
  41   29   30 1
  42   29   33 1
  43   30   31 am
  44   30   34 2
  45   31   32 1
  46   32   33 1
  47   32   35 1
  48   32   52 1
  49   33   53 1
  50   33   54 1
  51   35   36 ar
  52   35   40 ar
  53   36   37 ar
  54   36   55 1
  55   37   38 ar
  56   37   56 1
  57   38   39 ar
  58   38   41 1
  59   39   40 ar
  60   39   57 1

#	End of record

