#	Name: ASD07932204
#	Creating user name:	WinNT
#	Creation time:	15. 06. 2019 21:14

#	Modifying user name:	WinNT
#	Modification time:	15. 06. 2019 21:14

#	Program:	/corina/corina34_cracker 3.40 0067  02.08.2006

@<TRIPOS>MOLECULE
ASD07932204
  70   72    0    0    0
SMALL
NO_CHARGES


@<TRIPOS>ATOM
   1 Cl1            0.0000     0.0000     0.0000 Cl      
   2 H2             0.0000     1.3700     0.0000 H       
   3 Cl3            5.0000     6.3700     5.0000 Cl      
   4 H4             5.0000     7.7400     5.0000 H       
   5 C5            10.9496    20.0647    13.0849 C.ar    
   6 C6            10.9798    18.6719    13.0813 C.ar    
   7 C7            12.1600    17.9970    12.9993 C.ar    
   8 C8            13.3654    18.7113    12.9166 C.ar    
   9 C9            13.3407    20.1305    12.9193 C.ar    
  10 C10           12.0986    20.7930    13.0061 C.ar    
  11 C11           14.6039    18.0473    12.8312 C.ar    
  12 C12           15.7377    18.8029    12.7538 C.ar    
  13 C13           15.6448    20.2030    12.7611 C.ar    
  14 N14           14.4801    20.8163    12.8420 N.ar    
  15 C15           16.8845    21.0114    12.6769 C.2     
  16 N16           16.8131    22.3573    12.6827 N.am    
  17 O17           17.9651    20.4607    12.6028 O.2     
  18 C18           18.0383    23.1562    12.5996 C.3     
  19 C19           17.7951    24.5297    13.2282 C.3     
  20 C20           19.0747    25.3641    13.1413 C.3     
  21 C21           19.4716    25.5378    11.6740 C.3     
  22 C22           19.7148    24.1642    11.0454 C.3     
  23 C23           18.4353    23.3299    11.1322 C.3     
  24 O24           17.4244    24.3675    14.5987 O.3     
  25 C25           14.6757    16.5420    12.8257 C.3     
  26 N26           14.4667    16.0369    14.1892 N.3     
  27 C27           14.1643    14.5999    14.1775 C.3     
  28 C28           13.8105    14.1402    15.5936 C.3     
  29 C29           14.9904    14.4249    16.5271 C.3     
  30 C30           15.3159    15.9204    16.4840 C.3     
  31 C31           15.6260    16.3286    15.0420 C.3     
  32 C32           14.6256    14.0293    17.9348 C.ar    
  33 F33           12.0482    22.1430    13.0106 F       
  34 C34           15.5298    14.1888    18.9737 C.ar    
  35 C35           13.3759    13.5025    18.2228 C.ar    
  36 C36           13.0770    13.1510    19.5255 C.ar    
  37 N37           13.9640    13.3121    20.4880 N.ar    
  38 C38           15.1600    13.8148    20.2518 C.ar    
  39 C39           16.1638    13.6531    16.0863 C.1     
  40 N40           17.0693    13.0575    15.7462 N.1     
  41 H41           10.0000    20.5754    13.1467 H       
  42 H42           10.0541    18.1193    13.1449 H       
  43 H43           12.1684    16.9171    12.9983 H       
  44 H44           16.7038    18.3247    12.6875 H       
  45 H45           15.9505    22.7969    12.7420 H       
  46 H46           18.8403    22.6483    13.1353 H       
  47 H47           16.9931    25.0376    12.6925 H       
  48 H48           18.9014    26.3426    13.5891 H       
  49 H49           19.8767    24.8562    13.6770 H       
  50 H50           18.6696    26.0457    11.1383 H       
  51 H51           20.3832    26.1322    11.6121 H       
  52 H52           19.9976    24.2880    10.0000 H       
  53 H53           20.5168    23.6564    11.5811 H       
  54 H54           18.6085    22.3513    10.6844 H       
  55 H55           17.6333    23.8378    10.5965 H       
  56 H56           17.2544    25.1995    15.0613 H       
  57 H57           13.9030    16.1437    12.1682 H       
  58 H58           15.6556    16.2263    12.4676 H       
  59 H59           13.3209    14.4117    13.5132 H       
  60 H60           15.0353    14.0484    13.8236 H       
  61 H61           12.9312    14.6814    15.9429 H       
  62 H62           13.6013    13.0704    15.5873 H       
  63 H63           14.4603    16.4897    16.8473 H       
  64 H64           16.1822    16.1226    17.1138 H       
  65 H65           16.4902    15.7689    14.6840 H       
  66 H66           15.8443    17.3959    15.0056 H       
  67 H67           16.5109    14.5999    18.7866 H       
  68 H68           12.6450    13.3688    17.4390 H       
  69 H69           12.1058    12.7400    19.7581 H       
  70 H70           15.8601    13.9318    21.0658 H       
@<TRIPOS>BOND
   1    1    2 1
   2    3    4 1
   3    5    6 ar
   4    5   10 ar
   5    5   41 1
   6    6    7 ar
   7    6   42 1
   8    7    8 ar
   9    7   43 1
  10    8    9 ar
  11    8   11 ar
  12    9   10 ar
  13    9   14 ar
  14   10   33 1
  15   11   12 ar
  16   11   25 1
  17   12   13 ar
  18   12   44 1
  19   13   14 ar
  20   13   15 1
  21   15   16 am
  22   15   17 2
  23   16   18 1
  24   16   45 1
  25   18   19 1
  26   18   23 1
  27   18   46 1
  28   19   20 1
  29   19   24 1
  30   19   47 1
  31   20   21 1
  32   20   48 1
  33   20   49 1
  34   21   22 1
  35   21   50 1
  36   21   51 1
  37   22   23 1
  38   22   52 1
  39   22   53 1
  40   23   54 1
  41   23   55 1
  42   24   56 1
  43   25   26 1
  44   25   57 1
  45   25   58 1
  46   26   27 1
  47   26   31 1
  48   27   28 1
  49   27   59 1
  50   27   60 1
  51   28   29 1
  52   28   61 1
  53   28   62 1
  54   29   30 1
  55   29   32 1
  56   29   39 1
  57   30   31 1
  58   30   63 1
  59   30   64 1
  60   31   65 1
  61   31   66 1
  62   32   34 ar
  63   32   35 ar
  64   34   38 ar
  65   34   67 1
  66   35   36 ar
  67   35   68 1
  68   36   37 ar
  69   36   69 1
  70   37   38 ar
  71   38   70 1
  72   39   40 3

#	End of record

