#	Name: ASD01911099
#	Creating user name:	WinNT
#	Creation time:	15. 06. 2019 19:57

#	Modifying user name:	WinNT
#	Modification time:	15. 06. 2019 19:57

#	Program:	/corina/corina34_cracker 3.40 0067  02.08.2006

@<TRIPOS>MOLECULE
ASD01911099
  44   47    0    0    0
SMALL
NO_CHARGES


@<TRIPOS>ATOM
   1 C1             0.2381     1.1025     0.1023 C.2     
   2 O2             1.2483     1.7770     0.1381 O.2     
   3 C3             0.3341    -0.3761     0.1027 C.ar    
   4 C4             1.5751    -0.9877    -0.0598 C.ar    
   5 C5             1.6490    -2.3716    -0.0573 C.ar    
   6 C6             0.4786    -3.0960     0.1077 C.ar    
   7 C7            -0.7214    -2.4212     0.2641 C.ar    
   8 N8            -0.7622    -1.1066     0.2632 N.ar    
   9 N9            -0.9698     1.6994     0.0679 N.am    
  10 C10           -2.1895     0.9090    -0.1471 C.3     
  11 C11           -2.9658     1.5102    -1.3229 C.3     
  12 C12           -3.2185     2.9958    -1.0560 C.3     
  13 C13           -1.8805     3.7289    -0.9353 C.3     
  14 C14           -1.0924     3.1521     0.2506 C.3     
  15 O15           -5.2547     0.7169    -0.5588 O.3     
  16 N16           -6.1830     0.0694    -0.9949 N.2     
  17 C17           -5.9205    -0.3318    -2.2084 C.2     
  18 N18           -4.6946     0.1323    -2.5272 N.2     
  19 C19           -4.2837     0.7950    -1.4738 C.2     
  20 O20           -6.7297    -1.0768    -3.0017 O.3     
  21 C21           -7.8984    -1.5289    -2.4757 C.ar    
  22 C22           -8.2982    -1.1154    -1.2130 C.ar    
  23 C23           -9.4866    -1.5765    -0.6806 C.ar    
  24 C24          -10.2773    -2.4496    -1.4047 C.ar    
  25 C25           -9.8809    -2.8635    -2.6631 C.ar    
  26 C26           -8.6967    -2.4002    -3.2027 C.ar    
  27 H27            2.4670    -0.3919    -0.1863 H       
  28 H28            2.5968    -2.8743    -0.1814 H       
  29 H29            0.5019    -4.1757     0.1139 H       
  30 H30           -1.6352    -2.9823     0.3925 H       
  31 H31           -1.9210    -0.1224    -0.3756 H       
  32 H32           -2.8065     0.9377     0.7510 H       
  33 H33           -2.3841     1.3987    -2.2379 H       
  34 H34           -3.7921     3.4203    -1.8798 H       
  35 H35           -3.7790     3.1078    -0.1278 H       
  36 H36           -1.3090     3.5966    -1.8539 H       
  37 H37           -2.0613     4.7908    -0.7684 H       
  38 H38           -1.6218     3.3600     1.1805 H       
  39 H39           -0.0998     3.6012     0.2845 H       
  40 H40           -7.6806    -0.4340    -0.6467 H       
  41 H41           -9.7982    -1.2549     0.3022 H       
  42 H42          -11.2058    -2.8092    -0.9866 H       
  43 H43          -10.4999    -3.5461    -3.2264 H       
  44 H44           -8.3899    -2.7200    -4.1876 H       
@<TRIPOS>BOND
   1    1    2 2
   2    1    3 1
   3    1    9 am
   4    3    4 ar
   5    3    8 ar
   6    4    5 ar
   7    4   27 1
   8    5    6 ar
   9    5   28 1
  10    6    7 ar
  11    6   29 1
  12    7    8 ar
  13    7   30 1
  14    9   10 1
  15    9   14 1
  16   10   11 1
  17   10   31 1
  18   10   32 1
  19   11   12 1
  20   11   19 1
  21   11   33 1
  22   12   13 1
  23   12   34 1
  24   12   35 1
  25   13   14 1
  26   13   36 1
  27   13   37 1
  28   14   38 1
  29   14   39 1
  30   15   16 1
  31   15   19 1
  32   16   17 2
  33   17   18 1
  34   17   20 1
  35   18   19 2
  36   20   21 1
  37   21   22 ar
  38   21   26 ar
  39   22   23 ar
  40   22   40 1
  41   23   24 ar
  42   23   41 1
  43   24   25 ar
  44   24   42 1
  45   25   26 ar
  46   25   43 1
  47   26   44 1

#	End of record

