#	Name: ASD01150586
#	Creating user name:	WinNT
#	Creation time:	15. 06. 2019 19:04

#	Modifying user name:	WinNT
#	Modification time:	15. 06. 2019 19:04

#	Program:	/corina/corina34_cracker 3.40 0067  02.08.2006

@<TRIPOS>MOLECULE
ASD01150586
  50   52    0    0    0
SMALL
NO_CHARGES


@<TRIPOS>ATOM
   1 C1             1.9144     1.4015     0.9688 C.ar    
   2 C2             1.9596     0.0213     0.9430 C.ar    
   3 C3             0.4927     0.0046    -0.9573 C.ar    
   4 C4             0.4446     1.3911    -0.9341 C.ar    
   5 C5             1.1564     2.0910     0.0299 C.ar    
   6 N6             1.1106     3.4892     0.0568 N.am    
   7 C7            -0.0779     4.1147    -0.0077 C.2     
   8 N8            -0.1589     5.4581     0.0162 N.am    
   9 C9             0.9637     6.2013     0.1061 C.2     
  10 C10            2.2668     5.5231     0.1771 C.2     
  11 N11            2.3024     4.2168     0.1564 N.2     
  12 O12            0.8988     7.4163     0.1279 O.2     
  13 C13           -1.4669     6.1139    -0.0561 C.3     
  14 O14           -1.0968     3.4557    -0.0895 O.2     
  15 C15           -2.0091     6.3080     1.3366 C.ar    
  16 O16            3.4152     6.2432     0.2677 O.3     
  17 C17            4.6387     5.5077     0.3322 C.3     
  18 C18            1.2519    -0.6785    -0.0157 C.ar    
  19 N19           -0.2232    -0.7049    -1.9279 N.am    
  20 C20            0.2667    -1.8622    -2.4148 C.2     
  21 C21           -0.5545    -2.6831    -3.3755 C.3     
  22 O22            1.3685    -2.2429    -2.0799 O.2     
  23 C23           -1.7215     7.4707     2.0314 C.ar    
  24 C24           -2.2123     7.6587     3.3059 C.ar    
  25 C25           -3.0036     6.6729     3.8998 C.ar    
  26 C26           -3.2928     5.4973     3.1926 C.ar    
  27 C27           -2.7949     5.3272     1.9103 C.ar    
  28 O28           -4.0602     4.5322     3.7594 O.3     
  29 C29           -4.3125     3.3622     2.9788 C.3     
  30 C30           -3.5163     6.8615     5.2235 C.1     
  31 N31           -3.9229     7.0111     6.2736 N.1     
  32 H32            2.4650     1.9454     1.7220 H       
  33 H33            2.5496    -0.5122     1.6735 H       
  34 H34           -0.1452     1.9245    -1.6648 H       
  35 H35           -1.3609     7.0833    -0.5430 H       
  36 H36           -2.1539     5.4921    -0.6301 H       
  37 H37            4.7447     4.8993    -0.5659 H       
  38 H38            5.4764     6.2015     0.4020 H       
  39 H39            4.6282     4.8613     1.2098 H       
  40 H40            1.2893    -1.7577    -0.0331 H       
  41 H41           -1.0721    -0.3638    -2.2503 H       
  42 H42           -1.5071    -2.1853    -3.5565 H       
  43 H43           -0.0149    -2.7885    -4.3166 H       
  44 H44           -0.7354    -3.6694    -2.9480 H       
  45 H45           -1.1097     8.2335     1.5729 H       
  46 H46           -1.9849     8.5668     3.8445 H       
  47 H47           -3.0152     4.4233     1.3618 H       
  48 H48           -3.3672     2.8782     2.7334 H       
  49 H49           -4.9364     2.6731     3.5481 H       
  50 H50           -4.8265     3.6427     2.0594 H       
@<TRIPOS>BOND
   1    1    2 ar
   2    1    5 ar
   3    1   32 1
   4    2   18 ar
   5    2   33 1
   6    3    4 ar
   7    3   19 1
   8    3   18 ar
   9    4    5 ar
  10    4   34 1
  11    5    6 1
  12    6    7 am
  13    6   11 1
  14    7    8 am
  15    7   14 2
  16    8    9 am
  17    8   13 1
  18    9   10 1
  19    9   12 2
  20   10   11 2
  21   10   16 1
  22   13   15 1
  23   13   35 1
  24   13   36 1
  25   15   23 ar
  26   15   27 ar
  27   16   17 1
  28   17   37 1
  29   17   38 1
  30   17   39 1
  31   18   40 1
  32   19   20 am
  33   19   41 1
  34   20   21 1
  35   20   22 2
  36   21   42 1
  37   21   43 1
  38   21   44 1
  39   23   24 ar
  40   23   45 1
  41   24   25 ar
  42   24   46 1
  43   25   26 ar
  44   25   30 1
  45   26   27 ar
  46   26   28 1
  47   27   47 1
  48   28   29 1
  49   29   48 1
  50   29   49 1
  51   29   50 1
  52   30   31 3

#	End of record

