#	Name: ASD09800050
#	Creating user name:	WinNT
#	Creation time:	15. 06. 2019 21:24

#	Modifying user name:	WinNT
#	Modification time:	15. 06. 2019 21:24

#	Program:	/corina/corina34_cracker 3.40 0067  02.08.2006

@<TRIPOS>MOLECULE
ASD09800050
  64   69    0    0    0
SMALL
NO_CHARGES


@<TRIPOS>ATOM
   1 C1            -2.5819    -0.3595     2.9512 C.2     
   2 N2            -3.4941    -1.1678     3.4599 N.2     
   3 C3            -4.5943    -1.4965     2.7704 C.2     
   4 C4            -4.8193    -1.0203     1.5324 C.2     
   5 C5            -2.7711     0.1731     1.6600 C.2     
   6 C6            -2.0426     1.0267     0.8386 C.2     
   7 N7            -3.9046    -0.1730     0.9480 N.pl3   
   8 C8            -3.8408     0.4627    -0.2357 C.2     
   9 N9            -2.7429     1.1719    -0.2984 N.2     
  10 C10           -0.7444     1.6554     1.1567 C.ar    
  11 C11            0.6473     3.6487     1.4210 C.ar    
  12 C12            1.7351     2.8187     1.7669 C.ar    
  13 C13            1.5719     1.4490     1.7958 C.ar    
  14 C14            0.3473     0.8700     1.4945 C.ar    
  15 C15           -0.6046     3.0646     1.1129 C.ar    
  16 N16            2.9758     3.3823     2.0725 N.am    
  17 C17            4.0959     2.6392     1.9747 C.2     
  18 N18            5.2792     3.1486     2.3705 N.am    
  19 O19            4.0389     1.5092     1.5294 O.2     
  20 N20           -1.4520    -0.0334     3.6826 N.pl3   
  21 C21           -4.8755     0.3683    -1.3273 C.3     
  22 C22           -6.3127     0.7560    -0.9739 C.3     
  23 C23           -5.4667     1.6769    -1.8554 C.3     
  24 C24           -4.6772    -0.7723    -2.3276 C.3     
  25 C25            0.7851     5.0453     1.3762 C.ar    
  26 C26           -1.6842     3.8905     0.7695 C.ar    
  27 C27           -1.5162     5.2422     0.7364 C.ar    
  28 C28           -0.2846     5.8179     1.0390 C.ar    
  29 C29            6.4968     2.3409     2.2642 C.3     
  30 C30            7.0767     2.4755     0.8548 C.3     
  31 C31            8.3483     1.6320     0.7438 C.3     
  32 C32            7.5241     2.8299     3.2872 C.3     
  33 C33            8.7957     1.9863     3.1762 C.3     
  34 C34            9.3756     2.1209     1.7668 C.3     
  35 H35           -5.3184    -2.1604     3.2191 H       
  36 H36           -5.7146    -1.3021     0.9982 H       
  37 H37            2.4080     0.8187     2.0608 H       
  38 H38            0.2432    -0.2046     1.5238 H       
  39 H39            3.0313     4.3085     2.3552 H       
  40 H40            5.3247     4.0501     2.7258 H       
  41 H41           -1.2642    -0.4931     4.5158 H       
  42 H42           -0.8484     0.6548     3.3616 H       
  43 H43           -7.1170     0.1988    -1.4543 H       
  44 H44           -6.5099     1.0794     0.0482 H       
  45 H45           -5.1073     2.6061    -1.4133 H       
  46 H46           -5.7144     1.7255    -2.9158 H       
  47 H47           -4.5914    -1.7165    -1.7898 H       
  48 H48           -5.5313    -0.8155    -3.0034 H       
  49 H49           -3.7677    -0.5975    -2.9023 H       
  50 H50            1.7346     5.5047     1.6082 H       
  51 H51           -2.6446     3.4572     0.5319 H       
  52 H52           -2.3495     5.8760     0.4716 H       
  53 H53           -0.1761     6.8919     1.0052 H       
  54 H54            6.2578     1.2957     2.4604 H       
  55 H55            6.3449     2.1272     0.1260 H       
  56 H56            7.3158     3.5207     0.6586 H       
  57 H57            8.1093     0.5868     0.9400 H       
  58 H58            8.7615     1.7279    -0.2603 H       
  59 H59            7.7632     3.8751     3.0910 H       
  60 H60            7.1110     2.7339     4.2913 H       
  61 H61            9.5276     2.3346     3.9050 H       
  62 H62            8.5567     0.9411     3.3724 H       
  63 H63           10.2816     1.5200     1.6877 H       
  64 H64            9.6147     3.1661     1.5706 H       
@<TRIPOS>BOND
   1    1    2 2
   2    1   20 1
   3    1    5 1
   4    2    3 1
   5    3    4 2
   6    3   35 1
   7    4    7 1
   8    4   36 1
   9    5    7 1
  10    5    6 2
  11    6    9 1
  12    6   10 1
  13    7    8 1
  14    8    9 2
  15    8   21 1
  16   10   15 ar
  17   10   14 ar
  18   11   12 ar
  19   11   15 ar
  20   11   25 ar
  21   12   13 ar
  22   12   16 1
  23   13   14 ar
  24   13   37 1
  25   14   38 1
  26   15   26 ar
  27   16   17 am
  28   16   39 1
  29   17   18 am
  30   17   19 2
  31   18   29 1
  32   18   40 1
  33   20   41 1
  34   20   42 1
  35   21   22 1
  36   21   23 1
  37   21   24 1
  38   22   23 1
  39   22   43 1
  40   22   44 1
  41   23   45 1
  42   23   46 1
  43   24   47 1
  44   24   48 1
  45   24   49 1
  46   25   28 ar
  47   25   50 1
  48   26   27 ar
  49   26   51 1
  50   27   28 ar
  51   27   52 1
  52   28   53 1
  53   29   32 1
  54   29   30 1
  55   29   54 1
  56   30   31 1
  57   30   55 1
  58   30   56 1
  59   31   34 1
  60   31   57 1
  61   31   58 1
  62   32   33 1
  63   32   59 1
  64   32   60 1
  65   33   34 1
  66   33   61 1
  67   33   62 1
  68   34   63 1
  69   34   64 1

#	End of record

