#	Name: ASD01916747
#	Creating user name:	WinNT
#	Creation time:	15. 06. 2019 20:07

#	Modifying user name:	WinNT
#	Modification time:	15. 06. 2019 20:07

#	Program:	/corina/corina34_cracker 3.40 0067  02.08.2006

@<TRIPOS>MOLECULE
ASD01916747
  64   68    0    0    0
SMALL
NO_CHARGES


@<TRIPOS>ATOM
   1 C1            -0.0158     1.3116     0.0093 C.2     
   2 N2             0.0021    -0.0041     0.0020 N.2     
   3 N3            -1.3353    -0.4323     0.0133 N.pl3   
   4 C4            -2.0973     0.6945     0.0272 C.2     
   5 N5            -1.2845     1.7321     0.0295 N.2     
   6 C6             1.1815     2.1885     0.0025 C.ar    
   7 C7             1.0329     3.5739     0.0114 C.ar    
   8 C8             2.4575     1.6287    -0.0068 C.ar    
   9 C9             3.5679     2.4476    -0.0126 C.ar    
  10 C10            3.4155     3.8247    -0.0086 C.ar    
  11 C11            2.1487     4.3855     0.0056 C.ar    
  12 F12            4.5055     4.6230    -0.0138 F       
  13 C13           -1.8144    -1.8167     0.0104 C.3     
  14 C14           -1.9647    -2.2993     1.4301 C.2     
  15 N15           -2.3956    -3.5529     1.6737 N.am    
  16 O16           -1.6978    -1.5597     2.3535 O.2     
  17 C17           -2.5492    -4.0440     3.0515 C.3     
  18 C18           -3.9523    -4.6415     3.2017 C.3     
  19 N19           -4.1660    -5.6502     2.1553 N.3     
  20 C20           -4.1208    -5.0471     0.8166 C.3     
  21 C21           -2.7304    -4.4641     0.5687 C.3     
  22 C22           -5.3620    -6.3297     2.3553 C.ar    
  23 N23           -6.1271    -6.0205     3.3907 N.ar    
  24 C24           -7.2697    -6.6411     3.6166 C.ar    
  25 C25           -7.7099    -7.6424     2.7748 C.ar    
  26 C26           -6.9367    -7.9972     1.6770 C.ar    
  27 C27           -5.7472    -7.3249     1.4625 C.ar    
  28 C28           -3.5284     0.7444     0.0420 C.1     
  29 C29           -4.7016     0.7853     0.0541 C.1     
  30 C30           -6.1726     0.8366     0.0694 C.3     
  31 C31           -6.6319     2.2960     0.0819 C.3     
  32 C32           -8.1609     2.3493     0.0977 C.3     
  33 C33           -8.7085     1.6530    -1.1498 C.3     
  34 C34           -8.2492     0.1936    -1.1623 C.3     
  35 C35           -6.7202     0.1403    -1.1781 C.3     
  36 H36            0.0457     4.0118     0.0224 H       
  37 H37            2.5771     0.5554    -0.0092 H       
  38 H38            4.5572     2.0146    -0.0198 H       
  39 H39            2.0343     5.4594     0.0087 H       
  40 H40           -2.7793    -1.8662    -0.4942 H       
  41 H41           -1.0973    -2.4482    -0.5141 H       
  42 H42           -1.8012    -4.8109     3.2524 H       
  43 H43           -2.4267    -3.2169     3.7508 H       
  44 H44           -4.0455    -5.1090     4.1819 H       
  45 H45           -4.6966    -3.8514     3.1027 H       
  46 H46           -4.3362    -5.8086     0.0671 H       
  47 H47           -4.8628    -4.2513     0.7509 H       
  48 H48           -2.7256    -3.9166    -0.3737 H       
  49 H49           -1.9970    -5.2696     0.5312 H       
  50 H50           -7.8678    -6.3622     4.4714 H       
  51 H51           -8.6459    -8.1452     2.9680 H       
  52 H52           -7.2590    -8.7776     1.0036 H       
  53 H53           -5.1217    -7.5750     0.6184 H       
  54 H54           -6.5446     0.3310     0.9605 H       
  55 H55           -6.2419     2.7920     0.9706 H       
  56 H56           -6.2600     2.8016    -0.8092 H       
  57 H57           -8.5329     1.8437     0.9888 H       
  58 H58           -8.4881     3.3890     0.1066 H       
  59 H59           -9.7978     1.6910    -1.1385 H       
  60 H60           -8.3365     2.1586    -2.0409 H       
  61 H61           -8.6211    -0.3120    -0.2712 H       
  62 H62           -8.6392    -0.3025    -2.0510 H       
  63 H63           -6.3482     0.6459    -2.0692 H       
  64 H64           -6.3930    -0.8994    -1.1870 H       
@<TRIPOS>BOND
   1    1    2 2
   2    1    6 1
   3    1    5 1
   4    2    3 1
   5    3    4 1
   6    3   13 1
   7    4    5 2
   8    4   28 1
   9    6    7 ar
  10    6    8 ar
  11    7   11 ar
  12    7   36 1
  13    8    9 ar
  14    8   37 1
  15    9   10 ar
  16    9   38 1
  17   10   11 ar
  18   10   12 1
  19   11   39 1
  20   13   14 1
  21   13   40 1
  22   13   41 1
  23   14   15 am
  24   14   16 2
  25   15   17 1
  26   15   21 1
  27   17   18 1
  28   17   42 1
  29   17   43 1
  30   18   19 1
  31   18   44 1
  32   18   45 1
  33   19   20 1
  34   19   22 1
  35   20   21 1
  36   20   46 1
  37   20   47 1
  38   21   48 1
  39   21   49 1
  40   22   23 ar
  41   22   27 ar
  42   23   24 ar
  43   24   25 ar
  44   24   50 1
  45   25   26 ar
  46   25   51 1
  47   26   27 ar
  48   26   52 1
  49   27   53 1
  50   28   29 3
  51   29   30 1
  52   30   31 1
  53   30   35 1
  54   30   54 1
  55   31   32 1
  56   31   55 1
  57   31   56 1
  58   32   33 1
  59   32   57 1
  60   32   58 1
  61   33   34 1
  62   33   59 1
  63   33   60 1
  64   34   35 1
  65   34   61 1
  66   34   62 1
  67   35   63 1
  68   35   64 1

#	End of record

