#	Name: ASD02408024
#	Creating user name:	WinNT
#	Creation time:	15. 06. 2019 20:21

#	Modifying user name:	WinNT
#	Modification time:	15. 06. 2019 20:21

#	Program:	/corina/corina34_cracker 3.40 0067  02.08.2006

@<TRIPOS>MOLECULE
ASD02408024
  37   38    0    0    0
SMALL
NO_CHARGES


@<TRIPOS>ATOM
   1 C1            -0.0167     1.3777     0.0096 C.ar    
   2 C2             0.0021    -0.0041     0.0020 C.ar    
   3 C3             1.2781     2.1488     0.0014 C.3     
   4 C4             1.6962     2.4134    -1.4221 C.2     
   5 N5             2.8358     3.0945    -1.6501 N.am    
   6 N6             0.9446     1.9704    -2.3931 N.2     
   7 C7             1.2664     2.1753    -3.6768 C.2     
   8 C8             2.4395     2.8832    -3.9865 C.2     
   9 C9             3.2405     3.3489    -2.9123 C.2     
  10 N10            0.4585     1.6982    -4.6796 N.pl3   
  11 O11            4.2686     3.9685    -3.1243 O.2     
  12 C12           -1.1869    -0.7119     0.0091 C.ar    
  13 C13           -2.3936    -0.0358     0.0238 C.ar    
  14 C14           -2.4111     1.3464     0.0314 C.ar    
  15 C15           -1.2232     2.0530     0.0190 C.ar    
  16 Cl16          -1.1642    -2.4477    -0.0010 Cl      
  17 C17           -1.2302    -0.8364    -7.5812 C.3     
  18 O18           -0.6555    -0.3822    -6.3542 O.3     
  19 C19           -1.4736     0.5443    -5.6370 C.3     
  20 C20           -0.7629     0.9605    -4.3476 C.3     
  21 C21            2.8184     3.1231    -5.3465 C.1     
  22 N22            3.1190     3.3134    -6.4253 N.1     
  23 H23            0.9445    -0.5314    -0.0098 H       
  24 H24            1.1399     3.0965     0.5217 H       
  25 H25            2.0505     1.5672     0.5048 H       
  26 H26            3.3693     3.4046    -0.9017 H       
  27 H27            0.6966     1.8496    -5.6076 H       
  28 H28           -3.3219    -0.5877     0.0290 H       
  29 H29           -3.3532     1.8744     0.0429 H       
  30 H30           -1.2373     3.1328     0.0253 H       
  31 H31           -0.5483    -1.5358    -8.0648 H       
  32 H32           -2.1773    -1.3354    -7.3760 H       
  33 H33           -1.4034     0.0156    -8.2386 H       
  34 H34           -1.6519     1.4250    -6.2541 H       
  35 H35           -2.4257     0.0739    -5.3915 H       
  36 H36           -0.5053     0.0717    -3.7716 H       
  37 H37           -1.4228     1.5969    -3.7581 H       
@<TRIPOS>BOND
   1    1    2 ar
   2    1    3 1
   3    1   15 ar
   4    2   12 ar
   5    2   23 1
   6    3    4 1
   7    3   24 1
   8    3   25 1
   9    4    5 1
  10    4    6 2
  11    5    9 am
  12    5   26 1
  13    6    7 1
  14    7    8 2
  15    7   10 1
  16    8    9 1
  17    8   21 1
  18    9   11 2
  19   10   20 1
  20   10   27 1
  21   12   13 ar
  22   12   16 1
  23   13   14 ar
  24   13   28 1
  25   14   15 ar
  26   14   29 1
  27   15   30 1
  28   17   18 1
  29   17   31 1
  30   17   32 1
  31   17   33 1
  32   18   19 1
  33   19   20 1
  34   19   34 1
  35   19   35 1
  36   20   36 1
  37   20   37 1
  38   21   22 3

#	End of record

