#	Name: ASD01883567
#	Creating user name:	WinNT
#	Creation time:	15. 06. 2019 19:46

#	Modifying user name:	WinNT
#	Modification time:	15. 06. 2019 19:46

#	Program:	/corina/corina34_cracker 3.40 0067  02.08.2006

@<TRIPOS>MOLECULE
ASD01883567
  56   58    0    0    0
SMALL
NO_CHARGES


@<TRIPOS>ATOM
   1 C1            -0.0162     1.3453     0.0094 C.2     
   2 C2             0.0021    -0.0041     0.0020 C.2     
   3 N3             1.1772    -0.6879    -0.0124 N.am    
   4 C4             2.3585    -0.0433    -0.0202 C.2     
   5 C5             2.3962     1.3583    -0.0130 C.2     
   6 C6             1.2013     2.0642     0.0017 C.2     
   7 C7             1.1570    -2.1527    -0.0191 C.3     
   8 O8             3.4000    -0.6806    -0.0332 O.2     
   9 Cl9            3.9153     2.1985    -0.0219 Cl      
  10 C10            1.2014     3.5445     0.0091 C.ar    
  11 C11            0.6809     4.2489    -1.0772 C.ar    
  12 C12            0.6820     5.6268    -1.0684 C.ar    
  13 C13            1.2017     6.3160     0.0217 C.ar    
  14 C14            1.7223     5.6162     1.1069 C.ar    
  15 C15            1.7172     4.2380     1.1055 C.ar    
  16 C16            1.1362    -2.6559    -1.4639 C.3     
  17 N17            1.2020     7.7101     0.0277 N.pl3   
  18 Cl18           2.3709     6.4800     2.4659 Cl      
  19 C19            0.6550     8.4477    -1.1137 C.3     
  20 C20            0.1967     9.8330    -0.6535 C.3     
  21 C21            1.3886    10.5986    -0.0755 C.3     
  22 C22            2.4676    10.7491    -1.1497 C.3     
  23 C23            2.9259     9.3638    -1.6100 C.3     
  24 C24            1.7340     8.5983    -2.1880 C.3     
  25 C25            1.1151    -4.1857    -1.4709 C.3     
  26 C26            1.0942    -4.6889    -2.9156 C.3     
  27 O27            1.9340    11.4686    -2.2632 O.3     
  28 C28            3.6595    11.5147    -0.5717 C.3     
  29 H29           -0.9578     1.8743     0.0168 H       
  30 H30           -0.9304    -0.5488     0.0080 H       
  31 H31            2.0467    -2.5307     0.4845 H       
  32 H32            0.2670    -2.5062     0.5016 H       
  33 H33            0.2776     3.7143    -1.9246 H       
  34 H34            0.2791     6.1720    -1.9091 H       
  35 H35            2.1211     3.6952     1.9473 H       
  36 H36            0.2464    -2.2779    -1.9675 H       
  37 H37            2.0261    -2.3024    -1.9846 H       
  38 H38            1.5644     8.1917     0.7877 H       
  39 H39           -0.1941     7.9023    -1.5256 H       
  40 H40           -0.2103    10.3818    -1.5028 H       
  41 H41           -0.5720     9.7257     0.1118 H       
  42 H42            1.0621    11.5855     0.2524 H       
  43 H43            1.7956    10.0498     0.7738 H       
  44 H44            3.6945     9.4711    -2.3753 H       
  45 H45            3.3329     8.8151    -0.7607 H       
  46 H46            2.0605     7.6114    -2.5159 H       
  47 H47            1.3270     9.1471    -3.0373 H       
  48 H48            2.0048    -4.5637    -0.9673 H       
  49 H49            0.2251    -4.5392    -0.9502 H       
  50 H50            1.9842    -4.3354    -3.4363 H       
  51 H51            1.0792    -5.7788    -2.9206 H       
  52 H52            0.2045    -4.3109    -3.4192 H       
  53 H53            2.5645    11.6016    -2.9842 H       
  54 H54            4.0665    10.9659     0.2776 H       
  55 H55            4.4282    11.6220    -1.3370 H       
  56 H56            3.3330    12.5016    -0.2438 H       
@<TRIPOS>BOND
   1    1    2 2
   2    1    6 1
   3    1   29 1
   4    2    3 1
   5    2   30 1
   6    3    4 am
   7    3    7 1
   8    4    5 1
   9    4    8 2
  10    5    6 2
  11    5    9 1
  12    6   10 1
  13    7   16 1
  14    7   31 1
  15    7   32 1
  16   10   11 ar
  17   10   15 ar
  18   11   12 ar
  19   11   33 1
  20   12   13 ar
  21   12   34 1
  22   13   14 ar
  23   13   17 1
  24   14   15 ar
  25   14   18 1
  26   15   35 1
  27   16   25 1
  28   16   36 1
  29   16   37 1
  30   17   19 1
  31   17   38 1
  32   19   20 1
  33   19   24 1
  34   19   39 1
  35   20   21 1
  36   20   40 1
  37   20   41 1
  38   21   22 1
  39   21   42 1
  40   21   43 1
  41   22   23 1
  42   22   27 1
  43   22   28 1
  44   23   24 1
  45   23   44 1
  46   23   45 1
  47   24   46 1
  48   24   47 1
  49   25   26 1
  50   25   48 1
  51   25   49 1
  52   26   50 1
  53   26   51 1
  54   26   52 1
  55   27   53 1
  56   28   54 1
  57   28   55 1
  58   28   56 1

#	End of record

