#	Name: ASD01884734
#	Creating user name:	WinNT
#	Creation time:	15. 06. 2019 19:48

#	Modifying user name:	WinNT
#	Modification time:	15. 06. 2019 19:48

#	Program:	/corina/corina34_cracker 3.40 0067  02.08.2006

@<TRIPOS>MOLECULE
ASD01884734
  47   49    0    0    0
SMALL
NO_CHARGES


@<TRIPOS>ATOM
   1 C1            -0.0180     1.3879     0.0745 C.2     
   2 C2             0.0009    -0.0044     0.0683 C.2     
   3 C3            -1.2138    -0.6983     0.0099 C.2     
   4 C4            -2.3891    -0.0113    -0.0402 C.2     
   5 N5            -2.4091     1.3458    -0.0342 N.am    
   6 C6            -1.2679     2.0575     0.0275 C.2     
   7 O7            -1.3081     3.2762     0.0320 O.2     
   8 C8            -3.6938     2.0478    -0.0896 C.3     
   9 C9             1.2042     2.1319     0.1335 C.1     
  10 N10            2.1737     2.7221     0.1803 N.1     
  11 C11           -4.2072     2.2848     1.3321 C.3     
  12 C12           -5.5489     3.0178     1.2742 C.3     
  13 C13           -6.5936     2.1178     0.6113 C.3     
  14 C14           -6.0019     3.3652     2.6937 C.3     
  15 N15           -1.2205    -2.1015     0.0024 N.pl3   
  16 C16           -0.6309    -2.8098    -1.0504 C.ar    
  17 C17           -0.3840    -4.1696    -0.9418 C.ar    
  18 C18           -0.7445    -4.9380     0.3021 C.3     
  19 C19           -0.8959    -3.9900     1.4916 C.3     
  20 C20           -1.8413    -2.8511     1.1030 C.3     
  21 C21           -0.2914    -2.1318    -2.2166 C.ar    
  22 C22            0.2932    -2.8119    -3.2656 C.ar    
  23 C23            0.5418    -4.1681    -3.1554 C.ar    
  24 C24            0.2053    -4.8436    -1.9984 C.ar    
  25 H25            0.9376    -0.5405     0.1075 H       
  26 H26           -3.3208    -0.5557    -0.0858 H       
  27 H27           -3.5630     3.0056    -0.5931 H       
  28 H28           -4.4146     1.4433    -0.6402 H       
  29 H29           -4.3380     1.3269     1.8356 H       
  30 H30           -3.4864     2.8892     1.8827 H       
  31 H31           -5.4377     3.9338     0.6939 H       
  32 H32           -7.5495     2.6401     0.5701 H       
  33 H33           -6.2709     1.8703    -0.4000 H       
  34 H34           -6.7048     1.2018     1.1916 H       
  35 H35           -5.2576     4.0064     3.1659 H       
  36 H36           -6.9578     3.8875     2.6525 H       
  37 H37           -6.1131     2.4492     3.2740 H       
  38 H38           -1.6845    -5.4656     0.1400 H       
  39 H39            0.0398    -5.6637     0.5173 H       
  40 H40           -1.3080    -4.5337     2.3418 H       
  41 H41            0.0779    -3.5781     1.7565 H       
  42 H42           -1.9955    -2.1923     1.9576 H       
  43 H43           -2.7962    -3.2631     0.7766 H       
  44 H44           -0.4858    -1.0728    -2.3014 H       
  45 H45            0.5560    -2.2859    -4.1716 H       
  46 H46            1.0002    -4.7002    -3.9758 H       
  47 H47            0.4021    -5.9025    -1.9177 H       
@<TRIPOS>BOND
   1    1    2 2
   2    1    9 1
   3    1    6 1
   4    2    3 1
   5    2   25 1
   6    3    4 2
   7    3   15 1
   8    4    5 1
   9    4   26 1
  10    5    8 1
  11    5    6 am
  12    6    7 2
  13    8   11 1
  14    8   27 1
  15    8   28 1
  16    9   10 3
  17   11   12 1
  18   11   29 1
  19   11   30 1
  20   12   13 1
  21   12   14 1
  22   12   31 1
  23   13   32 1
  24   13   33 1
  25   13   34 1
  26   14   35 1
  27   14   36 1
  28   14   37 1
  29   15   16 1
  30   15   20 1
  31   16   17 ar
  32   16   21 ar
  33   17   18 1
  34   17   24 ar
  35   18   19 1
  36   18   38 1
  37   18   39 1
  38   19   20 1
  39   19   40 1
  40   19   41 1
  41   20   42 1
  42   20   43 1
  43   21   22 ar
  44   21   44 1
  45   22   23 ar
  46   22   45 1
  47   23   24 ar
  48   23   46 1
  49   24   47 1

#	End of record

