#	Name: ASD02198715
#	Creating user name:	WinNT
#	Creation time:	15. 06. 2019 20:20

#	Modifying user name:	WinNT
#	Modification time:	15. 06. 2019 20:20

#	Program:	/corina/corina34_cracker 3.40 0067  02.08.2006

@<TRIPOS>MOLECULE
ASD02198715
  52   56    0    0    0
SMALL
NO_CHARGES


@<TRIPOS>ATOM
   1 F1             2.7085    -1.2979     3.0019 F       
   2 C2             0.2294     1.3916     0.0170 C.2     
   3 C3             0.2849     0.0921     0.4035 C.2     
   4 N4             1.4709    -0.5057     0.6562 N.pl3   
   5 N5             2.5985     0.0948     0.5516 N.2     
   6 C6             2.6876     1.3556     0.1853 C.2     
   7 C7             1.4507     2.0954    -0.1121 C.2     
   8 C8             1.4673    -1.8476     1.0524 C.ar    
   9 C9             2.0947    -2.2259     2.2356 C.ar    
  10 C10            2.0899    -3.5517     2.6258 C.ar    
  11 C11            1.4591    -4.5049     1.8371 C.ar    
  12 C12            0.8328    -4.1263     0.6559 C.ar    
  13 C13            0.8323    -2.8023     0.2677 C.ar    
  14 C14            4.0042     2.0159     0.0752 C.2     
  15 N15            4.5044     2.6512    -1.0266 N.pl3   
  16 N16            5.7782     3.1328    -0.6997 N.2     
  17 C17            6.0454     2.8088     0.5403 C.2     
  18 C18            4.9569     2.1124     1.0657 C.2     
  19 C19            3.8590     2.7945    -2.2614 C.ar    
  20 C20            3.9310     3.9992    -2.9484 C.ar    
  21 C21            3.2934     4.1374    -4.1657 C.ar    
  22 C22            2.5839     3.0777    -4.7006 C.ar    
  23 C23            2.5100     1.8770    -4.0186 C.ar    
  24 C24            3.1505     1.7305    -2.8038 C.ar    
  25 O25            1.4770     3.2676    -0.4566 O.2     
  26 N26            1.4545    -5.8473     2.2319 N.am    
  27 C27            0.7883    -6.8238     1.5919 C.2     
  28 C28            2.1814    -6.3711     3.3943 C.3     
  29 C29            2.2458    -7.9004     3.1853 C.3     
  30 C30            1.0140    -8.1489     2.2861 C.3     
  31 O31            0.1051    -6.6655     0.6024 O.2     
  32 C32           -0.2023    -8.5229     3.1355 C.3     
  33 H33           -0.7155     1.8719    -0.1897 H       
  34 H34           -0.6299    -0.4716     0.5110 H       
  35 H35            2.5768    -3.8464     3.5437 H       
  36 H36            0.3428    -4.8685     0.0431 H       
  37 H37            0.3450    -2.5090    -0.6504 H       
  38 H38            6.9562     3.0454     1.0702 H       
  39 H39            4.8782     1.7144     2.0666 H       
  40 H40            4.4846     4.8272    -2.5311 H       
  41 H41            3.3487     5.0741    -4.7004 H       
  42 H42            2.0863     3.1882    -5.6526 H       
  43 H43            1.9545     1.0514    -4.4386 H       
  44 H44            3.0924     0.7924    -2.2717 H       
  45 H45            3.1872    -5.9526     3.4301 H       
  46 H46            1.6423    -6.1383     4.3126 H       
  47 H47            3.1642    -8.1856     2.6721 H       
  48 H48            2.1509    -8.4281     4.1342 H       
  49 H49            1.2258    -8.9305     1.5564 H       
  50 H50           -0.4265    -7.7104     3.8267 H       
  51 H51           -1.0604    -8.6943     2.4857 H       
  52 H52            0.0135    -9.4304     3.6994 H       
@<TRIPOS>BOND
   1    1    9 1
   2    2    3 2
   3    2    7 1
   4    2   33 1
   5    3    4 1
   6    3   34 1
   7    4    5 1
   8    4    8 1
   9    5    6 2
  10    6    7 1
  11    6   14 1
  12    7   25 2
  13    8    9 ar
  14    8   13 ar
  15    9   10 ar
  16   10   11 ar
  17   10   35 1
  18   11   12 ar
  19   11   26 1
  20   12   13 ar
  21   12   36 1
  22   13   37 1
  23   14   15 1
  24   14   18 2
  25   15   16 1
  26   15   19 1
  27   16   17 2
  28   17   18 1
  29   17   38 1
  30   18   39 1
  31   19   20 ar
  32   19   24 ar
  33   20   21 ar
  34   20   40 1
  35   21   22 ar
  36   21   41 1
  37   22   23 ar
  38   22   42 1
  39   23   24 ar
  40   23   43 1
  41   24   44 1
  42   26   28 1
  43   26   27 am
  44   27   31 2
  45   27   30 1
  46   28   29 1
  47   28   45 1
  48   28   46 1
  49   29   30 1
  50   29   47 1
  51   29   48 1
  52   30   32 1
  53   30   49 1
  54   32   50 1
  55   32   51 1
  56   32   52 1

#	End of record

