#	Name: ASD00841775
#	Creating user name:	WinNT
#	Creation time:	15. 06. 2019 18:42

#	Modifying user name:	WinNT
#	Modification time:	15. 06. 2019 18:42

#	Program:	/corina/corina34_cracker 3.40 0067  02.08.2006

@<TRIPOS>MOLECULE
ASD00841775
  88   93    0    0    0
SMALL
NO_CHARGES


@<TRIPOS>ATOM
   1 F1            -0.0790    -3.1444     4.7191 F       
   2 C2            -0.0058     1.3862     0.0348 C.ar    
   3 C3             0.0089    -0.0007     0.0177 C.ar    
   4 C4             1.2191    -0.6792    -0.0020 C.ar    
   5 C5             2.4058     0.0276    -0.0046 C.ar    
   6 C6             2.3885     1.4103     0.0130 C.ar    
   7 C7             1.1841     2.0886     0.0322 C.ar    
   8 C8             1.2387    -2.1860    -0.0202 C.3     
   9 C9             0.4943    -2.7113    -1.2288 C.2     
  10 N10            2.6179    -2.6800    -0.0123 N.am    
  11 C11            3.4633    -2.3341    -1.0034 C.2     
  12 N12            4.7589    -2.7002    -0.9424 N.am    
  13 O13            3.0571    -1.6917    -1.9524 O.2     
  14 C14            5.6723    -2.4336    -2.0640 C.3     
  15 C15            6.9190    -1.7284    -1.5194 C.3     
  16 N16            7.4921    -2.5273    -0.4280 N.3     
  17 C17            6.5584    -2.6346     0.7010 C.3     
  18 C18            5.2984    -3.3715     0.2499 C.3     
  19 N19            8.7693    -1.9815     0.0022 N.3     
  20 C20            9.3427    -2.7807     1.0940 C.3     
  21 C21           10.7190    -2.2222     1.4631 C.3     
  22 N22           10.5829    -0.8140     1.8605 N.3     
  23 C23           10.0095    -0.0147     0.7686 C.3     
  24 C24            8.6332    -0.5732     0.3996 C.3     
  25 H25           10.0310    -0.7270     2.7006 H       
  26 O26            0.7741    -2.5076    -2.3913 O.2     
  27 N27           -0.5341    -3.4458    -0.7730 N.am    
  28 C28            0.4681    -2.7398     1.1569 C.ar    
  29 C29           -0.5791    -3.4836     0.6228 C.ar    
  30 C30            0.6364    -2.6250     2.5192 C.ar    
  31 C31           -0.2428    -3.2550     3.3827 C.ar    
  32 C32           -1.3015    -4.0071     2.8636 C.ar    
  33 C33           -1.4661    -4.1196     1.4833 C.ar    
  34 C34           -0.9895    -5.8322    -2.0662 C.ar    
  35 C35            0.1897    -5.9875    -2.7808 C.ar    
  36 C36           -1.6646    -6.9422    -1.5950 C.ar    
  37 C37           -1.1673    -8.2088    -1.8336 C.ar    
  38 C38            0.0119    -8.3695    -2.5479 C.ar    
  39 C39            0.6906    -7.2577    -3.0219 C.ar    
  40 O40            0.5004    -9.6157    -2.7827 O.3     
  41 O41            0.8528    -4.8956    -3.2442 O.3     
  42 C42            2.0601    -5.1303    -3.9718 C.3     
  43 C43           -0.2513   -10.7153    -2.2651 C.3     
  44 S44           -1.6229    -4.2181    -1.7531 S.o2    
  45 O45           -2.8035    -4.3930    -0.9817 O.2     
  46 O46           -1.6017    -3.5305    -2.9965 O.2     
  47 O47           -1.1600    -0.6939     0.0207 O.3     
  48 C48           -3.5698    -0.8757     0.0422 C.3     
  49 C49           -2.3673     0.0703     0.0419 C.3     
  50 C50           -2.2161    -4.6624     3.7495 C.1     
  51 N51           -2.9417    -5.1822     4.4522 N.1     
  52 H52           -0.9465     1.9166     0.0457 H       
  53 H53            3.3480    -0.5000    -0.0199 H       
  54 H54            3.3174     1.9611     0.0117 H       
  55 H55            1.1732     3.1684     0.0459 H       
  56 H56            2.9226    -3.2561     0.7061 H       
  57 H57            5.9596    -3.3743    -2.5338 H       
  58 H58            5.1783    -1.7923    -2.7940 H       
  59 H59            7.6542    -1.6218    -2.3170 H       
  60 H60            6.6443    -0.7429    -1.1433 H       
  61 H61            7.0321    -3.1853     1.5137 H       
  62 H62            6.2888    -1.6365     1.0462 H       
  63 H63            4.5575    -3.3531     1.0491 H       
  64 H64            5.5469    -4.4032     0.0009 H       
  65 H65            8.6862    -2.7334     1.9629 H       
  66 H66            9.4452    -3.8167     0.7713 H       
  67 H67           11.1337    -2.7956     2.2922 H       
  68 H68           11.3836    -2.2946     0.6022 H       
  69 H69            9.9070     1.0213     1.0914 H       
  70 H70           10.6661    -0.0620    -0.1002 H       
  71 H71            8.2185     0.0001    -0.4295 H       
  72 H72            7.9686    -0.5009     1.2605 H       
  73 H73            1.4559    -2.0428     2.9141 H       
  74 H74           -2.2837    -4.7005     1.0829 H       
  75 H75           -2.5823    -6.8193    -1.0390 H       
  76 H76           -1.6963    -9.0747    -1.4637 H       
  77 H77            1.6081    -7.3807    -3.5782 H       
  78 H78            2.7714    -5.6567    -3.3354 H       
  79 H79            1.8423    -5.7359    -4.8515 H       
  80 H80            2.4875    -4.1773    -4.2836 H       
  81 H81            0.2476   -11.6496    -2.5224 H       
  82 H82           -0.3229   -10.6282    -1.1809 H       
  83 H83           -1.2520   -10.7068    -2.6971 H       
  84 H84           -4.4907    -0.2929     0.0584 H       
  85 H85           -3.5464    -1.4933    -0.8557 H       
  86 H86           -3.5289    -1.5151     0.9241 H       
  87 H87           -2.3907     0.6879     0.9398 H       
  88 H88           -2.4082     0.7096    -0.8399 H       
@<TRIPOS>BOND
   1    1   31 1
   2    2    3 ar
   3    2    7 ar
   4    2   52 1
   5    3    4 ar
   6    3   47 1
   7    4    5 ar
   8    4    8 1
   9    5    6 ar
  10    5   53 1
  11    6    7 ar
  12    6   54 1
  13    7   55 1
  14    8    9 1
  15    8   10 1
  16    8   28 1
  17    9   26 2
  18    9   27 am
  19   10   11 am
  20   10   56 1
  21   11   12 am
  22   11   13 2
  23   12   14 1
  24   12   18 1
  25   14   15 1
  26   14   57 1
  27   14   58 1
  28   15   16 1
  29   15   59 1
  30   15   60 1
  31   16   17 1
  32   16   19 1
  33   17   18 1
  34   17   61 1
  35   17   62 1
  36   18   63 1
  37   18   64 1
  38   19   20 1
  39   19   24 1
  40   20   21 1
  41   20   65 1
  42   20   66 1
  43   21   22 1
  44   21   67 1
  45   21   68 1
  46   22   23 1
  47   22   25 1
  48   23   24 1
  49   23   69 1
  50   23   70 1
  51   24   71 1
  52   24   72 1
  53   27   44 am
  54   27   29 1
  55   28   29 ar
  56   28   30 ar
  57   29   33 ar
  58   30   31 ar
  59   30   73 1
  60   31   32 ar
  61   32   33 ar
  62   32   50 1
  63   33   74 1
  64   34   35 ar
  65   34   36 ar
  66   34   44 1
  67   35   41 1
  68   35   39 ar
  69   36   37 ar
  70   36   75 1
  71   37   38 ar
  72   37   76 1
  73   38   39 ar
  74   38   40 1
  75   39   77 1
  76   40   43 1
  77   41   42 1
  78   42   78 1
  79   42   79 1
  80   42   80 1
  81   43   81 1
  82   43   82 1
  83   43   83 1
  84   44   45 2
  85   44   46 2
  86   47   49 1
  87   48   49 1
  88   48   84 1
  89   48   85 1
  90   48   86 1
  91   49   87 1
  92   49   88 1
  93   50   51 3

#	End of record

