#	Name: ASD01881495
#	Creating user name:	WinNT
#	Creation time:	15. 06. 2019 19:42

#	Modifying user name:	WinNT
#	Modification time:	15. 06. 2019 19:42

#	Program:	/corina/corina34_cracker 3.40 0067  02.08.2006

@<TRIPOS>MOLECULE
ASD01881495
  55   59    0    0    0
SMALL
NO_CHARGES


@<TRIPOS>ATOM
   1 C1             1.7241     0.7984    -0.0167 C.2     
   2 N2             0.9452    -0.2889    -0.0502 N.am    
   3 C3            -0.3623     0.0368    -0.0744 C.2     
   4 C4            -0.4076     1.5518    -0.0527 C.3     
   5 N5             1.0129     1.9402    -0.0153 N.am    
   6 O6             2.9385     0.7588     0.0144 O.2     
   7 O7            -1.3059    -0.7236    -0.1073 O.2     
   8 C8            -1.0793     2.0884    -1.3183 C.3     
   9 C9             1.4511    -1.6637    -0.0604 C.3     
  10 C10            1.5954    -2.1647     1.3781 C.3     
  11 C11            1.5469     3.3040     0.0177 C.3     
  12 C12            1.5486     3.8086     1.4377 C.ar    
  13 C13            2.6016     3.4943     2.2802 C.ar    
  14 C14            2.6078     3.9542     3.5823 C.ar    
  15 C15            1.5516     4.7363     4.0472 C.ar    
  16 C16            0.4949     5.0495     3.1939 C.ar    
  17 C17            0.5012     4.5885     1.8929 C.ar    
  18 C18            1.2860     6.7826     9.3713 C.2     
  19 N19            0.1212     7.4523     9.3395 N.am    
  20 C20           -0.4639     7.3189     8.0005 C.3     
  21 C21            0.4974     6.4735     7.2025 C.ar    
  22 C22            0.4935     6.0160     5.9081 C.ar    
  23 C23            1.5522     5.2329     5.4443 C.ar    
  24 C24            2.6105     4.9175     6.2972 C.ar    
  25 C25            2.6140     5.3758     7.5949 C.ar    
  26 C26            1.5552     6.1602     8.0618 C.ar    
  27 O27            2.0163     6.7052    10.3401 O.2     
  28 C28           -0.4674     8.1935    10.4576 C.3     
  29 C29           -0.7898     7.4110    11.7322 C.3     
  30 C30            0.3914     8.3832    11.7096 C.3     
  31 Cl31           3.9157     2.5202     1.6988 Cl      
  32 H32           -0.9259     1.9073     0.8379 H       
  33 H33           -2.0790     1.6634    -1.4072 H       
  34 H34           -1.1502     3.1745    -1.2594 H       
  35 H35           -0.4871     1.8097    -2.1900 H       
  36 H36            0.7530    -2.3039    -0.5997 H       
  37 H37            2.4230    -1.6897    -0.5533 H       
  38 H38            2.2936    -1.5246     1.9174 H       
  39 H39            0.6236    -2.1388     1.8710 H       
  40 H40            1.9718    -3.1876     1.3705 H       
  41 H41            2.5658     3.3047    -0.3694 H       
  42 H42            0.9240     3.9531    -0.5978 H       
  43 H43            3.4291     3.7082     4.2392 H       
  44 H44           -0.3258     5.6551     3.5492 H       
  45 H45           -0.3155     4.8340     1.2303 H       
  46 H46           -1.4338     6.8255     8.0630 H       
  47 H47           -0.5714     8.3006     7.5392 H       
  48 H48           -0.3268     6.2614     5.2499 H       
  49 H49            3.4292     4.3117     5.9380 H       
  50 H50            3.4347     5.1299     8.2524 H       
  51 H51           -1.1409     9.0048    10.1812 H       
  52 H52           -1.6751     7.7077    12.2946 H       
  53 H53           -0.5639     6.3446    11.7388 H       
  54 H54            1.3944     7.9564    11.7013 H       
  55 H55            0.2832     9.3195    12.2570 H       
@<TRIPOS>BOND
   1    1    2 am
   2    1    5 am
   3    1    6 2
   4    2    3 am
   5    2    9 1
   6    3    4 1
   7    3    7 2
   8    4    5 1
   9    4    8 1
  10    4   32 1
  11    5   11 1
  12    8   33 1
  13    8   34 1
  14    8   35 1
  15    9   10 1
  16    9   36 1
  17    9   37 1
  18   10   38 1
  19   10   39 1
  20   10   40 1
  21   11   12 1
  22   11   41 1
  23   11   42 1
  24   12   13 ar
  25   12   17 ar
  26   13   14 ar
  27   13   31 1
  28   14   15 ar
  29   14   43 1
  30   15   16 ar
  31   15   23 1
  32   16   17 ar
  33   16   44 1
  34   17   45 1
  35   18   19 am
  36   18   26 1
  37   18   27 2
  38   19   20 1
  39   19   28 1
  40   20   21 1
  41   20   46 1
  42   20   47 1
  43   21   22 ar
  44   21   26 ar
  45   22   23 ar
  46   22   48 1
  47   23   24 ar
  48   24   25 ar
  49   24   49 1
  50   25   26 ar
  51   25   50 1
  52   28   29 1
  53   28   30 1
  54   28   51 1
  55   29   30 1
  56   29   52 1
  57   29   53 1
  58   30   54 1
  59   30   55 1

#	End of record

