#	Name: ASD01913418
#	Creating user name:	WinNT
#	Creation time:	15. 06. 2019 20:01

#	Modifying user name:	WinNT
#	Modification time:	15. 06. 2019 20:01

#	Program:	/corina/corina34_cracker 3.40 0067  02.08.2006

@<TRIPOS>MOLECULE
ASD01913418
  38   40    0    0    0
SMALL
NO_CHARGES


@<TRIPOS>ATOM
   1 C1            -1.9619    -0.7281    -2.1792 C.ar    
   2 C2            -1.4556    -0.0511    -1.0722 C.ar    
   3 C3            -1.4800     1.3416    -1.0833 C.ar    
   4 N4            -1.9793     1.9659    -2.1370 N.ar    
   5 C5            -2.4489     1.2885    -3.1654 C.ar    
   6 N6            -2.4438    -0.0291    -3.1933 N.ar    
   7 C7            -1.0322    -2.1440     0.0677 C.ar    
   8 C8             0.1188    -2.9208     0.0151 C.ar    
   9 C9             0.0302    -4.3015     0.0662 C.ar    
  10 C10           -1.2040    -4.9151     0.1703 C.ar    
  11 C11           -2.3652    -4.1419     0.2242 C.ar    
  12 C12           -2.2749    -2.7512     0.1722 C.ar    
  13 C13           -3.6865    -4.7954     0.3351 C.2     
  14 N14           -3.7715    -6.1396     0.3843 N.am    
  15 C15           -5.0045    -6.7523     0.5977 C.ar    
  16 O16           -4.6964    -4.1204     0.3819 O.2     
  17 N17           -0.9373    -0.7507     0.0211 N.pl3   
  18 F18            1.1529    -5.0511     0.0137 F       
  19 N19           -6.1036    -6.0157     0.6435 N.ar    
  20 C20           -7.2912    -6.5552     0.8429 C.ar    
  21 C21           -7.4305    -7.9178     1.0122 C.ar    
  22 C22           -6.3014    -8.7273     0.9711 C.ar    
  23 C23           -5.0697    -8.1318     0.7549 C.ar    
  24 C24           -0.2944    -0.0232     1.1183 C.3     
  25 Cl25          -6.4326   -10.4457     1.1794 Cl      
  26 H26           -1.9569    -1.8076    -2.2109 H       
  27 H27           -1.0971     1.9031    -0.2440 H       
  28 H28           -2.8501     1.8291    -4.0099 H       
  29 H29            1.0855    -2.4460    -0.0663 H       
  30 H30           -1.2700    -5.9924     0.2096 H       
  31 H31           -3.1702    -2.1485     0.2139 H       
  32 H32           -2.9743    -6.6804     0.2712 H       
  33 H33           -8.1656    -5.9221     0.8744 H       
  34 H34           -8.4065    -8.3505     1.1752 H       
  35 H35           -4.1715    -8.7303     0.7166 H       
  36 H36           -1.0408     0.2350     1.8695 H       
  37 H37            0.4735    -0.6512     1.5699 H       
  38 H38            0.1622     0.8879     0.7317 H       
@<TRIPOS>BOND
   1    1    2 ar
   2    1    6 ar
   3    1   26 1
   4    2    3 ar
   5    2   17 1
   6    3    4 ar
   7    3   27 1
   8    4    5 ar
   9    5    6 ar
  10    5   28 1
  11    7    8 ar
  12    7   12 ar
  13    7   17 1
  14    8    9 ar
  15    8   29 1
  16    9   10 ar
  17    9   18 1
  18   10   11 ar
  19   10   30 1
  20   11   12 ar
  21   11   13 1
  22   12   31 1
  23   13   14 am
  24   13   16 2
  25   14   15 1
  26   14   32 1
  27   15   19 ar
  28   15   23 ar
  29   17   24 1
  30   19   20 ar
  31   20   21 ar
  32   20   33 1
  33   21   22 ar
  34   21   34 1
  35   22   23 ar
  36   22   25 1
  37   23   35 1
  38   24   36 1
  39   24   37 1
  40   24   38 1

#	End of record

