#	Name: ASD01231391
#	Creating user name:	WinNT
#	Creation time:	15. 06. 2019 19:15

#	Modifying user name:	WinNT
#	Modification time:	15. 06. 2019 19:15

#	Program:	/corina/corina34_cracker 3.40 0067  02.08.2006

@<TRIPOS>MOLECULE
ASD01231391
  55   57    0    0    0
SMALL
NO_CHARGES


@<TRIPOS>ATOM
   1 C1             0.2215     1.3755    -1.1059 C.3     
   2 C2             0.2797    -0.1667    -1.1034 C.3     
   3 C3             1.5336    -0.4500    -0.2494 C.3     
   4 C4             2.4068     0.7766    -0.4086 C.ar    
   5 C5             3.7514     0.9565    -0.1429 C.ar    
   6 C6             4.3496     2.1954    -0.3706 C.ar    
   7 C7             3.5829     3.2509    -0.8678 C.ar    
   8 C8             2.2434     3.0603    -1.1291 C.ar    
   9 C9             1.6524     1.8267    -0.9012 C.ar    
  10 C10            5.7871     2.3901    -0.0867 C.2     
  11 O11            6.4514     1.4687     0.3466 O.2     
  12 N12            6.3613     3.5891    -0.3081 N.am    
  13 C13            7.6991     3.8016     0.0488 C.ar    
  14 C14            8.1468     5.0880     0.3509 C.ar    
  15 C15            9.4725     5.2913     0.7034 C.ar    
  16 C16           10.3461     4.2208     0.7546 C.ar    
  17 C17            9.9025     2.9463     0.4548 C.ar    
  18 C18            8.5809     2.7333     0.1083 C.ar    
  19 S19            7.7989     7.6568    -0.1936 S.o2    
  20 O20            6.6279     8.4612    -0.2214 O.2     
  21 O21            8.8699     7.9525     0.6922 O.2     
  22 N22            7.2612     6.1696     0.2979 N.am    
  23 C23            8.4213     7.3802    -1.8749 C.3     
  24 S24           -2.1892    -1.2268    -1.4123 S.o2    
  25 O25           -3.1565    -1.6838    -0.4771 O.2     
  26 O26           -2.4549    -0.1156    -2.2573 O.2     
  27 N27           -0.9168    -0.7319    -0.4749 N.am    
  28 C28           -1.5290    -2.6152    -2.3751 C.3     
  29 C29           -1.0578    -3.7171    -1.4240 C.3     
  30 C30           -2.6232    -3.1661    -3.2917 C.3     
  31 H31           -0.1564     1.7381    -2.0618 H       
  32 H32           -0.4076     1.7315    -0.2901 H       
  33 H33            0.4054    -0.5513    -2.1155 H       
  34 H34            1.2567    -0.5839     0.7963 H       
  35 H35            2.0521    -1.3341    -0.6204 H       
  36 H36            4.3394     0.1364     0.2419 H       
  37 H37            4.0382     4.2138    -1.0467 H       
  38 H38            1.6503     3.8767    -1.5138 H       
  39 H39            5.8483     4.3050    -0.7146 H       
  40 H40            9.8227     6.2858     0.9375 H       
  41 H41           11.3783     4.3809     1.0293 H       
  42 H42           10.5892     2.1137     0.4957 H       
  43 H43            8.2367     1.7356    -0.1206 H       
  44 H44            6.3321     6.0485     0.5490 H       
  45 H45            8.7997     8.3182    -2.2811 H       
  46 H46            9.2256     6.6451    -1.8482 H       
  47 H47            7.6125     7.0111    -2.5055 H       
  48 H48           -0.9638    -0.8163     0.4903 H       
  49 H49           -0.6885    -2.2719    -2.9783 H       
  50 H50           -0.2783    -3.3246    -0.7710 H       
  51 H51           -1.8983    -4.0603    -0.8208 H       
  52 H52           -0.6611    -4.5513    -2.0025 H       
  53 H53           -2.9589    -2.3811    -3.9693 H       
  54 H54           -2.2265    -4.0004    -3.8703 H       
  55 H55           -3.4637    -3.5094    -2.6885 H       
@<TRIPOS>BOND
   1    1    2 1
   2    1    9 1
   3    1   31 1
   4    1   32 1
   5    2    3 1
   6    2   27 1
   7    2   33 1
   8    3    4 1
   9    3   34 1
  10    3   35 1
  11    4    5 ar
  12    4    9 ar
  13    5    6 ar
  14    5   36 1
  15    6    7 ar
  16    6   10 1
  17    7    8 ar
  18    7   37 1
  19    8    9 ar
  20    8   38 1
  21   10   11 2
  22   10   12 am
  23   12   13 1
  24   12   39 1
  25   13   14 ar
  26   13   18 ar
  27   14   15 ar
  28   14   22 1
  29   15   16 ar
  30   15   40 1
  31   16   17 ar
  32   16   41 1
  33   17   18 ar
  34   17   42 1
  35   18   43 1
  36   19   20 2
  37   19   21 2
  38   19   22 am
  39   19   23 1
  40   22   44 1
  41   23   45 1
  42   23   46 1
  43   23   47 1
  44   24   25 2
  45   24   26 2
  46   24   27 am
  47   24   28 1
  48   27   48 1
  49   28   29 1
  50   28   30 1
  51   28   49 1
  52   29   50 1
  53   29   51 1
  54   29   52 1
  55   30   53 1
  56   30   54 1
  57   30   55 1

#	End of record

