#	Name: ASD00431030
#	Creating user name:	WinNT
#	Creation time:	15. 06. 2019 18:35

#	Modifying user name:	WinNT
#	Modification time:	15. 06. 2019 18:35

#	Program:	/corina/corina34_cracker 3.40 0067  02.08.2006

@<TRIPOS>MOLECULE
ASD00431030
  15   15    0    0    0
SMALL
NO_CHARGES


@<TRIPOS>ATOM
   1 C1            -0.0173     1.4259     0.0099 C.3     
   2 O2             0.0021    -0.0041     0.0020 O.3     
   3 C3             0.6798    -0.5645    -1.1258 C.3     
   4 C4             2.1251    -0.0600    -1.1482 C.3     
   5 N5             2.1254     1.4099    -1.1727 N.3     
   6 C6             1.4209     1.9505    -0.0010 C.3     
   7 H7            -0.5434     1.7877    -0.8736 H       
   8 H8            -0.5264     1.7781     0.9071 H       
   9 H9             0.6750    -1.6518    -1.0500 H       
  10 H10            0.1740    -0.2606    -2.0423 H       
  11 H11            2.6464    -0.4093    -0.2569 H       
  12 H12            2.6291    -0.4389    -2.0373 H       
  13 H13            3.0662     1.7705    -1.2272 H       
  14 H14            1.4109     3.0392    -0.0527 H       
  15 H15            1.9309     1.6334     0.9086 H       
@<TRIPOS>BOND
   1    1    2 1
   2    1    6 1
   3    1    7 1
   4    1    8 1
   5    2    3 1
   6    3    4 1
   7    3    9 1
   8    3   10 1
   9    4    5 1
  10    4   11 1
  11    4   12 1
  12    5    6 1
  13    5   13 1
  14    6   14 1
  15    6   15 1

#	End of record

