#	Name: ASD07930312
#	Creating user name:	WinNT
#	Creation time:	15. 06. 2019 21:12

#	Modifying user name:	WinNT
#	Modification time:	15. 06. 2019 21:12

#	Program:	/corina/corina34_cracker 3.40 0067  02.08.2006

@<TRIPOS>MOLECULE
ASD07930312
  32   33    0    0    0
SMALL
NO_CHARGES


@<TRIPOS>ATOM
   1 N1            -0.0055     1.4467     0.2169 N.pl3   
   2 C2             0.0021    -0.0041     0.0020 C.3     
   3 C3             0.8317    -0.6748     1.1056 C.3     
   4 S4             2.4969     0.0608     1.0953 S.o2    
   5 N5             2.1759     1.6958     1.1084 N.am    
   6 C6             1.1851     2.1437     0.2462 C.2     
   7 C7            -1.4107    -0.5268     0.0464 C.ar    
   8 C8            -2.1677    -0.3787     1.1958 C.ar    
   9 C9            -3.4660    -0.8586     1.2364 C.ar    
  10 C10           -4.0059    -1.4847     0.1295 C.ar    
  11 C11           -3.2487    -1.6329    -1.0203 C.ar    
  12 C12           -1.9524    -1.1489    -1.0625 C.ar    
  13 N13            1.3729     3.1878    -0.5110 N.2     
  14 C14            2.9037     2.6151     1.9867 C.3     
  15 F15           -1.6397     0.2336     2.2782 F       
  16 O16            3.1634    -0.1825     2.3265 O.2     
  17 O17            3.1412    -0.1671    -0.1506 O.2     
  18 C18            0.6204    -0.3152    -1.3625 C.3     
  19 F19           -3.7765    -2.2456    -2.1025 F       
  20 H20           -0.8462     1.9161     0.3343 H       
  21 H21            0.3609    -0.5048     2.0739 H       
  22 H22            0.9017    -1.7454     0.9133 H       
  23 H23           -4.0563    -0.7437     2.1335 H       
  24 H24           -5.0185    -1.8590     0.1612 H       
  25 H25           -1.3619    -1.2641    -1.9594 H       
  26 H26            2.2163     3.6657    -0.4778 H       
  27 H27            3.7885     2.9872     1.4701 H       
  28 H28            2.2582     3.4526     2.2511 H       
  29 H29            3.2061     2.0894     2.8924 H       
  30 H30            1.6427     0.0616    -1.3925 H       
  31 H31            0.6257    -1.3935    -1.5216 H       
  32 H32            0.0331     0.1647    -2.1454 H       
@<TRIPOS>BOND
   1    1    2 1
   2    1    6 1
   3    1   20 1
   4    2    3 1
   5    2    7 1
   6    2   18 1
   7    3    4 1
   8    3   21 1
   9    3   22 1
  10    4    5 am
  11    4   16 2
  12    4   17 2
  13    5    6 1
  14    5   14 1
  15    6   13 2
  16    7    8 ar
  17    7   12 ar
  18    8    9 ar
  19    8   15 1
  20    9   10 ar
  21    9   23 1
  22   10   11 ar
  23   10   24 1
  24   11   12 ar
  25   11   19 1
  26   12   25 1
  27   13   26 1
  28   14   27 1
  29   14   28 1
  30   14   29 1
  31   18   30 1
  32   18   31 1
  33   18   32 1

#	End of record

