#	Name: ASD01148351
#	Creating user name:	WinNT
#	Creation time:	15. 06. 2019 19:02

#	Modifying user name:	WinNT
#	Modification time:	15. 06. 2019 19:02

#	Program:	/corina/corina34_cracker 3.40 0067  02.08.2006

@<TRIPOS>MOLECULE
ASD01148351
  47   49    0    0    0
SMALL
NO_CHARGES


@<TRIPOS>ATOM
   1 C1            -0.4098     1.8301    -0.0438 C.ar    
   2 C2            -0.4709     0.4508     0.0162 C.ar    
   3 C3             0.6950    -0.2903     0.0953 C.ar    
   4 C4             1.9210     0.3501     0.1144 C.ar    
   5 C5             1.9808     1.7299     0.0545 C.ar    
   6 C6             0.8159     2.4696    -0.0246 C.ar    
   7 C7             3.3163     2.4277     0.0753 C.3     
   8 O8             4.3315     1.6183    -0.5523 O.3     
   9 C9             3.3022     3.6780    -0.8363 C.3     
  10 C10            3.8441     3.1373    -2.1458 C.2     
  11 N11            4.3963     1.9937    -1.9139 N.2     
  12 C12            3.7554     3.8041    -3.4597 C.ar    
  13 C13            4.2995     3.1922    -4.5921 C.ar    
  14 C14            3.1224     5.0445    -3.5721 C.ar    
  15 C15            3.0397     5.6665    -4.7975 C.ar    
  16 C16            3.5887     5.0573    -5.9285 C.ar    
  17 C17            4.2168     3.8140    -5.8170 C.ar    
  18 C18            3.4999     5.7248    -7.2435 C.2     
  19 O19            4.0723     5.2510    -8.2054 O.2     
  20 N20            2.7843     6.8591    -7.3765 N.am    
  21 C21            4.8095     3.1572    -7.0370 C.3     
  22 C22            3.7163     2.7962     1.5054 C.3     
  23 F23            3.7879     1.6356     2.2833 F       
  24 F24            4.9650     3.4267     1.4926 F       
  25 F25            2.7616     3.6631     2.0479 F       
  26 Cl26           0.6191    -2.0229     0.1712 Cl      
  27 C27            2.7013     7.4833    -8.6062 C.2     
  28 N28            3.3092     6.9801    -9.6279 N.2     
  29 O29            3.2241     7.6198   -10.8882 O.3     
  30 C30            3.9443     6.9543   -11.9277 C.3     
  31 H31           -1.3195     2.4084    -0.1100 H       
  32 H32           -1.4283    -0.0486     0.0015 H       
  33 H33            2.8313    -0.2277     0.1766 H       
  34 H34            0.8631     3.5476    -0.0715 H       
  35 H35            2.2866     4.0529    -0.9632 H       
  36 H36            3.9556     4.4544    -0.4383 H       
  37 H37            4.7852     2.2314    -4.5059 H       
  38 H38            2.6977     5.5153    -2.6978 H       
  39 H39            2.5501     6.6252    -4.8845 H       
  40 H40            2.3275     7.2372    -6.6088 H       
  41 H41            5.8063     3.5593    -7.2180 H       
  42 H42            4.8757     2.0814    -6.8745 H       
  43 H43            4.1752     3.3558    -7.9009 H       
  44 H44            2.1278     8.3923    -8.7128 H       
  45 H45            5.0005     6.9040   -11.6632 H       
  46 H46            3.5525     5.9448   -12.0523 H       
  47 H47            3.8292     7.5064   -12.8604 H       
@<TRIPOS>BOND
   1    1    2 ar
   2    1    6 ar
   3    1   31 1
   4    2    3 ar
   5    2   32 1
   6    3    4 ar
   7    3   26 1
   8    4    5 ar
   9    4   33 1
  10    5    6 ar
  11    5    7 1
  12    6   34 1
  13    7    8 1
  14    7    9 1
  15    7   22 1
  16    8   11 1
  17    9   10 1
  18    9   35 1
  19    9   36 1
  20   10   11 2
  21   10   12 1
  22   12   13 ar
  23   12   14 ar
  24   13   17 ar
  25   13   37 1
  26   14   15 ar
  27   14   38 1
  28   15   16 ar
  29   15   39 1
  30   16   17 ar
  31   16   18 1
  32   17   21 1
  33   18   19 2
  34   18   20 am
  35   20   27 1
  36   20   40 1
  37   21   41 1
  38   21   42 1
  39   21   43 1
  40   22   23 1
  41   22   24 1
  42   22   25 1
  43   27   28 2
  44   27   44 1
  45   28   29 1
  46   29   30 1
  47   30   45 1
  48   30   46 1
  49   30   47 1

#	End of record

