#	Name: ASD08178220
#	Creating user name:	WinNT
#	Creation time:	15. 06. 2019 21:18

#	Modifying user name:	WinNT
#	Modification time:	15. 06. 2019 21:18

#	Program:	/corina/corina34_cracker 3.40 0067  02.08.2006

@<TRIPOS>MOLECULE
ASD08178220
  60   63    0    0    0
SMALL
NO_CHARGES


@<TRIPOS>ATOM
   1 C1             0.2471     0.9894    -1.5586 C.ar    
   2 C2             0.1883    -0.5079    -1.3984 C.3     
   3 C3            -0.4576    -0.8520    -0.0547 C.3     
   4 C4            -0.5173    -2.3721     0.1080 C.3     
   5 C5            -1.1632    -2.7162     1.4516 C.3     
   6 C6            -1.2220    -4.2135     1.6119 C.2     
   7 N7            -0.3107    -4.9606     2.1490 N.2     
   8 N8            -0.5483    -6.1999     2.1906 N.2     
   9 C9            -1.6754    -6.6147     1.6959 C.2     
  10 S10           -2.5478    -5.2625     1.1085 S.3     
  11 N11           -2.1050    -7.9367     1.6548 N.am    
  12 C12           -1.3256    -8.9145     2.1577 C.2     
  13 N13           -1.7419   -10.1957     2.1178 N.am    
  14 O14           -0.2468    -8.6408     2.6473 O.2     
  15 C15           -0.8943   -11.2207     2.5527 C.ar    
  16 C16           -0.0418   -11.0093     3.6284 C.ar    
  17 C17            0.7936   -12.0229     4.0551 C.ar    
  18 C18            0.7818   -13.2473     3.4125 C.ar    
  19 C19           -0.0659   -13.4610     2.3411 C.ar    
  20 C20           -0.9079   -12.4532     1.9131 C.ar    
  21 C21            1.4590     1.6120    -1.8198 C.ar    
  22 C22            1.4662     2.9915    -1.9597 C.ar    
  23 C23            0.2543     3.6668    -1.8291 C.ar    
  24 N24           -0.8534     2.9849    -1.5791 N.ar    
  25 N25           -0.8542     1.7073    -1.4561 N.ar    
  26 N26            0.2080     5.0543    -1.9606 N.am    
  27 C27           -0.9782     5.6938    -1.9406 C.2     
  28 C28           -1.0386     7.1778    -2.1964 C.3     
  29 O29           -1.9970     5.0751    -1.7169 O.2     
  30 C30           -2.4698     7.6432    -2.1182 C.ar    
  31 C31           -2.9948     8.0639    -0.9106 C.ar    
  32 C32           -3.2560     7.6547    -3.2551 C.ar    
  33 C33           -4.5688     8.0816    -3.1834 C.ar    
  34 C34           -5.0956     8.4965    -1.9746 C.ar    
  35 C35           -4.3076     8.4908    -0.8388 C.ar    
  36 H36           -0.4040    -0.9368    -2.2067 H       
  37 H37            1.1981    -0.9168    -1.4314 H       
  38 H38            0.1347    -0.4230     0.7535 H       
  39 H39           -1.4675    -0.4431    -0.0217 H       
  40 H40           -1.1096    -2.8011    -0.7003 H       
  41 H41            0.4925    -2.7810     0.0749 H       
  42 H42           -0.5709    -2.2873     2.2599 H       
  43 H43           -2.1730    -2.3073     1.4846 H       
  44 H44           -2.9656    -8.1551     1.2642 H       
  45 H45           -2.6291   -10.4073     1.7877 H       
  46 H46           -0.0318   -10.0531     4.1304 H       
  47 H47            1.4571   -11.8590     4.8914 H       
  48 H48            1.4363   -14.0382     3.7479 H       
  49 H49           -0.0726   -14.4182     1.8411 H       
  50 H50           -1.5700   -12.6209     1.0765 H       
  51 H51            2.3700     1.0392    -1.9110 H       
  52 H52            2.3824     3.5259    -2.1631 H       
  53 H53            1.0295     5.5592    -2.0664 H       
  54 H54           -0.4451     7.7002    -1.4461 H       
  55 H55           -0.6405     7.3920    -3.1882 H       
  56 H56           -2.3793     8.0588    -0.0231 H       
  57 H57           -2.8444     7.3305    -4.1995 H       
  58 H58           -5.1828     8.0912    -4.0718 H       
  59 H59           -6.1211     8.8304    -1.9186 H       
  60 H60           -4.7191     8.8150     0.1056 H       
@<TRIPOS>BOND
   1    1    2 1
   2    1   21 ar
   3    1   25 ar
   4    2    3 1
   5    2   36 1
   6    2   37 1
   7    3    4 1
   8    3   38 1
   9    3   39 1
  10    4    5 1
  11    4   40 1
  12    4   41 1
  13    5    6 1
  14    5   42 1
  15    5   43 1
  16    6    7 2
  17    6   10 1
  18    7    8 1
  19    8    9 2
  20    9   10 1
  21    9   11 1
  22   11   12 am
  23   11   44 1
  24   12   13 am
  25   12   14 2
  26   13   15 1
  27   13   45 1
  28   15   16 ar
  29   15   20 ar
  30   16   17 ar
  31   16   46 1
  32   17   18 ar
  33   17   47 1
  34   18   19 ar
  35   18   48 1
  36   19   20 ar
  37   19   49 1
  38   20   50 1
  39   21   22 ar
  40   21   51 1
  41   22   23 ar
  42   22   52 1
  43   23   24 ar
  44   23   26 1
  45   24   25 ar
  46   26   27 am
  47   26   53 1
  48   27   28 1
  49   27   29 2
  50   28   30 1
  51   28   54 1
  52   28   55 1
  53   30   31 ar
  54   30   32 ar
  55   31   35 ar
  56   31   56 1
  57   32   33 ar
  58   32   57 1
  59   33   34 ar
  60   33   58 1
  61   34   35 ar
  62   34   59 1
  63   35   60 1

#	End of record

