#	Name: ASD05430284
#	Creating user name:	WinNT
#	Creation time:	15. 06. 2019 21:00

#	Modifying user name:	WinNT
#	Modification time:	15. 06. 2019 21:00

#	Program:	/corina/corina34_cracker 3.40 0067  02.08.2006

@<TRIPOS>MOLECULE
ASD05430284
  74   80    0    0    0
SMALL
NO_CHARGES


@<TRIPOS>ATOM
   1 C1             0.1917     1.1571    -1.0578 C.ar    
   2 C2             0.0197    -0.0135    -0.3173 C.ar    
   3 C3             1.0326    -0.4713     0.5154 C.ar    
   4 C4             2.2140     0.2289     0.6148 C.ar    
   5 C5             2.3922     1.4017    -0.1241 C.ar    
   6 C6             1.3660     1.8615    -0.9649 C.ar    
   7 C7             4.8891    -0.0090    -0.0835 C.3     
   8 C8             4.8254     1.4948     0.0667 C.2     
   9 C9             3.6530     2.1537    -0.0208 C.2     
  10 C10            6.3065    -0.4393    -0.4469 C.3     
  11 C11            7.1010     0.5959    -1.2400 C.3     
  12 N12            7.1934     1.8294    -0.4562 N.pl3   
  13 C13            6.0845     2.2145     0.3118 C.2     
  14 N14            6.1861     3.1381     1.2146 N.2     
  15 C15            8.1608     3.8445    -1.3990 C.ar    
  16 C16            9.1793     4.2802    -2.2264 C.ar    
  17 C17            6.9331     4.4793    -1.4192 C.ar    
  18 C18            6.7223     5.5505    -2.2668 C.ar    
  19 C19            7.7413     5.9877    -3.0956 C.ar    
  20 C20            8.9708     5.3509    -3.0745 C.ar    
  21 N21           -1.1801    -0.7296    -0.4140 N.pl3   
  22 C22           -1.4954    -1.8691     0.2325 C.2     
  23 N23           -2.2967    -0.3999    -1.1996 N.2     
  24 C24           -3.1915    -1.3310    -0.9946 C.2     
  25 N25           -2.7039    -2.2181    -0.1280 N.2     
  26 C26           -4.5558    -1.3890    -1.6320 C.3     
  27 C27            7.0886    -1.0236     0.7410 C.3     
  28 O28            7.5176    -2.0390    -0.1892 O.3     
  29 C29            6.3773    -1.8510    -1.0521 C.3     
  30 Si30          10.3473     5.9397    -4.1917 Si      
  31 C31           11.3529     7.2354    -3.3082 C.3     
  32 C32           11.4431     4.5007    -4.6383 C.3     
  33 C33            9.6185     6.6701    -5.7429 C.3     
  34 C34            8.3874     2.6727    -0.4789 C.3     
  35 C35            8.6612     3.1805     0.9412 C.3     
  36 N36            7.4247     3.7168     1.5148 N.pl3   
  37 F37            7.5362     7.0344    -3.9248 F       
  38 C38            0.9021     2.9106    -1.9399 C.3     
  39 C39           -0.3987     2.1270    -2.0469 C.3     
  40 H40            0.8933    -1.3776     1.0861 H       
  41 H41            3.0013    -0.1273     1.2627 H       
  42 H42            4.5984    -0.4788     0.8561 H       
  43 H43            4.2030    -0.3232    -0.8702 H       
  44 H44            3.6388     3.2336    -0.0150 H       
  45 H45            8.1024     0.2137    -1.4379 H       
  46 H46            6.5942     0.8002    -2.1832 H       
  47 H47           10.1382     3.7837    -2.2095 H       
  48 H48            6.1381     4.1379    -0.7727 H       
  49 H49            5.7628     6.0462    -2.2826 H       
  50 H50           -0.8615    -2.4012     0.9263 H       
  51 H51           -4.4969    -1.9476    -2.5662 H       
  52 H52           -5.2521    -1.8847    -0.9556 H       
  53 H53           -4.9052    -0.3768    -1.8353 H       
  54 H54            7.8949    -0.3821     1.0967 H       
  55 H55            6.4550    -1.4002     1.5440 H       
  56 H56            5.5249    -2.4821    -0.8007 H       
  57 H57            6.6210    -1.8639    -2.1145 H       
  58 H58           11.7793     6.8080    -2.4007 H       
  59 H59           12.1561     7.5789    -3.9602 H       
  60 H60           10.7118     8.0773    -3.0470 H       
  61 H61           10.8546     3.7427    -5.1552 H       
  62 H62           12.2462     4.8443    -5.2902 H       
  63 H63           11.8694     4.0734    -3.7307 H       
  64 H64            8.9774     7.5120    -5.4817 H       
  65 H65           10.4217     7.0137    -6.3949 H       
  66 H66            9.0301     5.9120    -6.2599 H       
  67 H67            9.2394     2.0901    -0.8292 H       
  68 H68            9.0204     2.3571     1.5586 H       
  69 H69            9.4166     3.9655     0.9070 H       
  70 H70            7.4646     4.4821     2.1094 H       
  71 H71            0.7846     3.8986    -1.4947 H       
  72 H72            1.4749     2.9286    -2.8671 H       
  73 H73           -0.5697     1.6979    -3.0341 H       
  74 H74           -1.2652     2.6651    -1.6624 H       
@<TRIPOS>BOND
   1    1    2 ar
   2    1    6 ar
   3    1   39 1
   4    2    3 ar
   5    2   21 1
   6    3    4 ar
   7    3   40 1
   8    4    5 ar
   9    4   41 1
  10    5    6 ar
  11    5    9 1
  12    6   38 1
  13    7    8 1
  14    7   10 1
  15    7   42 1
  16    7   43 1
  17    8    9 2
  18    8   13 1
  19    9   44 1
  20   10   11 1
  21   10   27 1
  22   10   29 1
  23   11   12 1
  24   11   45 1
  25   11   46 1
  26   12   13 1
  27   12   34 1
  28   13   14 2
  29   14   36 1
  30   15   16 ar
  31   15   17 ar
  32   15   34 1
  33   16   20 ar
  34   16   47 1
  35   17   18 ar
  36   17   48 1
  37   18   19 ar
  38   18   49 1
  39   19   20 ar
  40   19   37 1
  41   20   30 1
  42   21   22 1
  43   21   23 1
  44   22   25 2
  45   22   50 1
  46   23   24 2
  47   24   25 1
  48   24   26 1
  49   26   51 1
  50   26   52 1
  51   26   53 1
  52   27   28 1
  53   27   54 1
  54   27   55 1
  55   28   29 1
  56   29   56 1
  57   29   57 1
  58   30   31 1
  59   30   32 1
  60   30   33 1
  61   31   58 1
  62   31   59 1
  63   31   60 1
  64   32   61 1
  65   32   62 1
  66   32   63 1
  67   33   64 1
  68   33   65 1
  69   33   66 1
  70   34   35 1
  71   34   67 1
  72   35   36 1
  73   35   68 1
  74   35   69 1
  75   36   70 1
  76   38   39 1
  77   38   71 1
  78   38   72 1
  79   39   73 1
  80   39   74 1

#	End of record

