#	Name: ASD01914164
#	Creating user name:	WinNT
#	Creation time:	15. 06. 2019 20:03

#	Modifying user name:	WinNT
#	Modification time:	15. 06. 2019 20:03

#	Program:	/corina/corina34_cracker 3.40 0067  02.08.2006

@<TRIPOS>MOLECULE
ASD01914164
  49   52    0    0    0
SMALL
NO_CHARGES


@<TRIPOS>ATOM
   1 C1             2.0780     0.5956     0.6630 C.ar    
   2 C2             1.7265    -0.8402     0.6124 C.2     
   3 N3             0.5236    -1.3515     0.4225 N.2     
   4 C4             0.6896    -2.6828     0.4532 C.2     
   5 N5             1.9526    -2.9176     0.6551 N.2     
   6 O6             2.5685    -1.8765     0.7447 O.3     
   7 C7            -0.3922    -3.7184     0.2850 C.3     
   8 C8            -0.0738    -4.5975    -0.9266 C.3     
   9 C9            -1.1884    -5.6286    -1.1178 C.3     
  10 C10           -1.2679    -6.5247     0.1222 C.3     
  11 N11           -1.4291    -5.6751     1.3100 N.am    
  12 C12           -0.4626    -4.5928     1.5409 C.3     
  13 C13           -2.4442    -5.8846     2.1714 C.2     
  14 C14           -2.5237    -5.1028     3.4258 C.ar    
  15 O15           -3.2943    -6.7154     1.9184 O.2     
  16 C16           -1.5227    -4.2018     5.4110 C.ar    
  17 C17           -3.7585    -3.7862     5.0078 C.ar    
  18 C18           -3.7274    -4.5080     3.8284 C.ar    
  19 C19           -1.4028    -4.9425     4.2436 C.ar    
  20 C20            0.0192    -7.3425     0.2473 C.3     
  21 N21           -2.6767    -3.6536     5.7500 N.ar    
  22 C22            3.4031     0.9755     0.8729 C.ar    
  23 C23            3.7178     2.3227     0.9180 C.ar    
  24 C24            2.6952     3.2480     0.7514 C.ar    
  25 C25            1.3986     2.7983     0.5463 C.ar    
  26 N26            1.1296     1.5114     0.5027 N.ar    
  27 F27            2.9602     4.5723     0.7891 F       
  28 F28           -4.8412    -4.6374     3.0749 F       
  29 O29           -0.4399    -4.0337     6.2120 O.3     
  30 C30           -0.6240    -3.2565     7.3970 C.3     
  31 H31           -1.3505    -3.2220     0.1326 H       
  32 H32            0.0012    -3.9743    -1.8177 H       
  33 H33            0.8729    -5.1123    -0.7630 H       
  34 H34           -2.1396    -5.1147    -1.2568 H       
  35 H35           -0.9727    -6.2391    -1.9947 H       
  36 H36           -2.1224    -7.1956     0.0340 H       
  37 H37            0.5200    -5.0179     1.7457 H       
  38 H38           -0.7858    -3.9891     2.3889 H       
  39 H39           -4.6818    -3.3246     5.3253 H       
  40 H40           -0.4574    -5.3885     3.9718 H       
  41 H41            0.8704    -6.6682     0.3415 H       
  42 H42           -0.0394    -7.9793     1.1300 H       
  43 H43            0.1434    -7.9626    -0.6405 H       
  44 H44            4.1732     0.2289     0.9989 H       
  45 H45            4.7353     2.6471     1.0794 H       
  46 H46            0.6004     3.5143     0.4167 H       
  47 H47           -1.3825    -3.7247     8.0243 H       
  48 H48            0.3167    -3.2008     7.9448 H       
  49 H49           -0.9466    -2.2513     7.1258 H       
@<TRIPOS>BOND
   1    1    2 1
   2    1   22 ar
   3    1   26 ar
   4    2    3 2
   5    2    6 1
   6    3    4 1
   7    4    5 2
   8    4    7 1
   9    5    6 1
  10    7    8 1
  11    7   12 1
  12    7   31 1
  13    8    9 1
  14    8   32 1
  15    8   33 1
  16    9   10 1
  17    9   34 1
  18    9   35 1
  19   10   11 1
  20   10   20 1
  21   10   36 1
  22   11   12 1
  23   11   13 am
  24   12   37 1
  25   12   38 1
  26   13   14 1
  27   13   15 2
  28   14   19 ar
  29   14   18 ar
  30   16   21 ar
  31   16   29 1
  32   16   19 ar
  33   17   18 ar
  34   17   21 ar
  35   17   39 1
  36   18   28 1
  37   19   40 1
  38   20   41 1
  39   20   42 1
  40   20   43 1
  41   22   23 ar
  42   22   44 1
  43   23   24 ar
  44   23   45 1
  45   24   25 ar
  46   24   27 1
  47   25   26 ar
  48   25   46 1
  49   29   30 1
  50   30   47 1
  51   30   48 1
  52   30   49 1

#	End of record

