#	Name: ASD01940518
#	Creating user name:	WinNT
#	Creation time:	15. 06. 2019 20:12

#	Modifying user name:	WinNT
#	Modification time:	15. 06. 2019 20:12

#	Program:	/corina/corina34_cracker 3.40 0067  02.08.2006

@<TRIPOS>MOLECULE
ASD01940518
  50   52    0    0    0
SMALL
NO_CHARGES


@<TRIPOS>ATOM
   1 C1            -0.0859     0.8444    -0.5885 C.ar    
   2 C2             0.0915    -0.5348    -0.5318 C.ar    
   3 C3             1.3598    -1.0760    -0.3709 C.ar    
   4 C4             2.4532    -0.2368    -0.2664 C.ar    
   5 C5             2.2666     1.1556    -0.3245 C.ar    
   6 C6             0.9876     1.6852    -0.4863 C.ar    
   7 O7             3.7055    -0.7260    -0.1091 O.3     
   8 C8             4.7635     0.0919    -0.0086 C.2     
   9 N9             4.6573     1.4297    -0.0560 N.am    
  10 C10            3.4522     2.0228    -0.2105 C.2     
  11 O11            3.3500     3.2337    -0.2541 O.2     
  12 O12            5.8660    -0.3989     0.1319 O.2     
  13 C13            5.8612     2.2562     0.0612 C.3     
  14 C14            6.4367     2.5025    -1.3096 C.ar    
  15 C15            7.5123     1.7543    -1.7521 C.ar    
  16 C16            8.0437     1.9774    -3.0090 C.ar    
  17 C17            7.5016     2.9488    -3.8282 C.ar    
  18 C18            6.4216     3.7024    -3.3889 C.ar    
  19 C19            5.8854     3.4727    -2.1263 C.ar    
  20 F20            4.8344     4.2034    -1.6944 F       
  21 N21            5.8707     4.6864    -4.2159 N.am    
  22 O22           -0.9834    -1.3569    -0.6342 O.3     
  23 S23           -1.3145    -1.7681    -2.0617 S.o2    
  24 C24           -0.0454    -2.9930    -2.4858 C.3     
  25 O25           -2.5901    -2.3861    -1.9614 O.2     
  26 O26           -1.1336    -0.5798    -2.8196 O.2     
  27 S27            6.8505     5.5717    -5.2152 S.o2    
  28 N28            7.4563     4.5329    -6.3538 N.am    
  29 O29            6.0031     6.4773    -5.9087 O.2     
  30 O30            7.9554     5.9905    -4.4258 O.2     
  31 C31            6.5548     3.8930    -7.3151 C.3     
  32 C32           -0.2727    -3.4888    -3.9153 C.3     
  33 H33           -1.0772     1.2530    -0.7185 H       
  34 H34            1.4914    -2.1470    -0.3273 H       
  35 H35            0.8451     2.7549    -0.5308 H       
  36 H36            5.6042     3.2090     0.5239 H       
  37 H37            6.5977     1.7401     0.6771 H       
  38 H38            7.9385     0.9941    -1.1142 H       
  39 H39            8.8841     1.3915    -3.3507 H       
  40 H40            7.9180     3.1222    -4.8095 H       
  41 H41            4.9148     4.8504    -4.2042 H       
  42 H42            0.9408    -2.5345    -2.4128 H       
  43 H43           -0.1071    -3.8341    -1.7953 H       
  44 H44            8.4081     4.3481    -6.3842 H       
  45 H45            5.8173     3.2955    -6.7793 H       
  46 H46            6.0460     4.6584    -7.9011 H       
  47 H47            7.1305     3.2492    -7.9800 H       
  48 H48           -1.2589    -3.9473    -3.9883 H       
  49 H49           -0.2110    -2.6477    -4.6057 H       
  50 H50            0.4898    -4.2248    -4.1701 H       
@<TRIPOS>BOND
   1    1    2 ar
   2    1    6 ar
   3    1   33 1
   4    2    3 ar
   5    2   22 1
   6    3    4 ar
   7    3   34 1
   8    4    5 ar
   9    4    7 1
  10    5    6 ar
  11    5   10 1
  12    6   35 1
  13    7    8 1
  14    8    9 am
  15    8   12 2
  16    9   10 am
  17    9   13 1
  18   10   11 2
  19   13   14 1
  20   13   36 1
  21   13   37 1
  22   14   15 ar
  23   14   19 ar
  24   15   16 ar
  25   15   38 1
  26   16   17 ar
  27   16   39 1
  28   17   18 ar
  29   17   40 1
  30   18   19 ar
  31   18   21 1
  32   19   20 1
  33   21   27 am
  34   21   41 1
  35   22   23 1
  36   23   24 1
  37   23   25 2
  38   23   26 2
  39   24   32 1
  40   24   42 1
  41   24   43 1
  42   27   28 am
  43   27   29 2
  44   27   30 2
  45   28   31 1
  46   28   44 1
  47   31   45 1
  48   31   46 1
  49   31   47 1
  50   32   48 1
  51   32   49 1
  52   32   50 1

#	End of record

