#	Name: ASD02030374
#	Creating user name:	WinNT
#	Creation time:	15. 06. 2019 20:15

#	Modifying user name:	WinNT
#	Modification time:	15. 06. 2019 20:15

#	Program:	/corina/corina34_cracker 3.40 0067  02.08.2006

@<TRIPOS>MOLECULE
ASD02030374
  54   57    0    0    0
SMALL
NO_CHARGES


@<TRIPOS>ATOM
   1 N1            -0.1985     1.7643    -0.2331 N.am    
   2 C2            -0.2416     0.2981    -0.3244 C.3     
   3 C3            -1.0388    -0.2440     0.8684 C.3     
   4 N4            -2.3042     0.4972     0.9634 N.am    
   5 C5            -2.2612     1.9634     1.0547 C.3     
   6 C6            -1.4638     2.5051    -0.1325 C.3     
   7 C7             0.9804     2.4174    -0.2359 C.2     
   8 C8             2.2471     1.6565    -0.1911 C.2     
   9 N9             3.4521     2.1671    -0.0568 N.2     
  10 N10            2.3702     0.3190    -0.2746 N.2     
  11 C11            3.6464     0.0402    -0.1948 C.2     
  12 N12            4.3107     1.2063    -0.0588 N.pl3   
  13 O13            1.0022     3.6322    -0.2752 O.2     
  14 C14           -3.4832    -0.1559     0.9662 C.2     
  15 C15           -3.5096    -1.6372     0.9428 C.ar    
  16 O16           -4.5245     0.4700     0.9879 O.2     
  17 C17           -1.1742     3.9925     0.0793 C.3     
  18 C18           -2.2665     2.3131    -1.4207 C.3     
  19 C19            5.6998     1.3487     0.0599 C.ar    
  20 C20            6.2603     2.6114     0.1948 C.ar    
  21 C21            7.6310     2.7485     0.3122 C.ar    
  22 C22            8.4432     1.6283     0.2947 C.ar    
  23 C23            7.8867     0.3696     0.1604 C.ar    
  24 C24            6.5177     0.2264     0.0486 C.ar    
  25 Cl25           8.3336     4.3269     0.4810 Cl      
  26 N26           -2.4098    -2.3196     1.2374 N.ar    
  27 C27           -2.3899    -3.6349     1.2286 C.ar    
  28 C28           -3.5247    -4.3617     0.9091 C.ar    
  29 C29           -4.6969    -3.6888     0.5945 C.ar    
  30 C30           -4.6895    -2.3016     0.6176 C.ar    
  31 C31           -1.1143    -4.3609     1.5705 C.3     
  32 Cl32          -6.1409    -4.5626     0.1884 Cl      
  33 H33           -0.7286     0.0037    -1.2541 H       
  34 H34            0.7727    -0.1000    -0.2978 H       
  35 H35           -1.2458    -1.3037     0.7188 H       
  36 H36           -0.4647    -0.1067     1.7848 H       
  37 H37           -3.2755     2.3615     1.0282 H       
  38 H38           -1.7742     2.2578     1.9844 H       
  39 H39            4.0875    -0.9450    -0.2285 H       
  40 H40           -0.4260     4.1089     0.8634 H       
  41 H41           -0.7990     4.4252    -0.8481 H       
  42 H42           -2.0913     4.5029     0.3735 H       
  43 H43           -3.2115     2.8508    -1.3436 H       
  44 H44           -1.6962     2.6999    -2.2653 H       
  45 H45           -2.4637     1.2517    -1.5711 H       
  46 H46            5.6264     3.4857     0.2077 H       
  47 H47            9.5139     1.7374     0.3858 H       
  48 H48            8.5231    -0.5029     0.1467 H       
  49 H49            6.0840    -0.7572    -0.0559 H       
  50 H50           -3.4976    -5.4414     0.9044 H       
  51 H51           -5.5835    -1.7450     0.3783 H       
  52 H52           -1.0785    -4.5468     2.6439 H       
  53 H53           -1.0823    -5.3104     1.0361 H       
  54 H54           -0.2596    -3.7508     1.2786 H       
@<TRIPOS>BOND
   1    1    2 1
   2    1    7 am
   3    1    6 1
   4    2    3 1
   5    2   33 1
   6    2   34 1
   7    3    4 1
   8    3   35 1
   9    3   36 1
  10    4    5 1
  11    4   14 am
  12    5    6 1
  13    5   37 1
  14    5   38 1
  15    6   17 1
  16    6   18 1
  17    7    8 1
  18    7   13 2
  19    8    9 2
  20    8   10 1
  21    9   12 1
  22   10   11 2
  23   11   12 1
  24   11   39 1
  25   12   19 1
  26   14   15 1
  27   14   16 2
  28   15   26 ar
  29   15   30 ar
  30   17   40 1
  31   17   41 1
  32   17   42 1
  33   18   43 1
  34   18   44 1
  35   18   45 1
  36   19   20 ar
  37   19   24 ar
  38   20   21 ar
  39   20   46 1
  40   21   22 ar
  41   21   25 1
  42   22   23 ar
  43   22   47 1
  44   23   24 ar
  45   23   48 1
  46   24   49 1
  47   26   27 ar
  48   27   28 ar
  49   27   31 1
  50   28   29 ar
  51   28   50 1
  52   29   30 ar
  53   29   32 1
  54   30   51 1
  55   31   52 1
  56   31   53 1
  57   31   54 1

#	End of record

