#	Name: ASD01917584
#	Creating user name:	WinNT
#	Creation time:	15. 06. 2019 20:09

#	Modifying user name:	WinNT
#	Modification time:	15. 06. 2019 20:09

#	Program:	/corina/corina34_cracker 3.40 0067  02.08.2006

@<TRIPOS>MOLECULE
ASD01917584
  24   25    0    0    0
SMALL
NO_CHARGES


@<TRIPOS>ATOM
   1 C1            -0.0166     1.3834     0.0059 C.ar    
   2 C2             0.0024    -0.0048    -0.0089 C.ar    
   3 C3             1.2155    -0.6641    -0.0272 C.ar    
   4 N4             2.3508     0.0080    -0.0303 N.ar    
   5 C5             2.3742     1.3314    -0.0166 C.ar    
   6 C6             1.1900     2.0603     0.0017 C.ar    
   7 N7             3.5961     2.0000    -0.0206 N.am    
   8 C8             4.7461     1.3027     0.0668 C.2     
   9 C9             6.0385     1.9970    -0.0517 C.2     
  10 O10            4.7160     0.0998     0.2437 O.2     
  11 N11            7.2134     1.4306     0.0162 N.2     
  12 C12            8.2404     2.2289    -0.1147 C.2     
  13 C13            7.9507     3.5270    -0.3018 C.2     
  14 S14            6.2516     3.7249    -0.3158 S.3     
  15 C15            1.2429    -2.1708    -0.0432 C.3     
  16 Br16          10.0210     1.5961    -0.0443 Br      
  17 H17           -0.9523     1.9228     0.0159 H       
  18 H18           -0.9220    -0.5632    -0.0057 H       
  19 H19            1.2119     3.1400     0.0124 H       
  20 H20            3.6193     2.9675    -0.0863 H       
  21 H21            8.6746     4.3186    -0.4277 H       
  22 H22            1.2399    -2.5232    -1.0747 H       
  23 H23            2.1442    -2.5231     0.4585 H       
  24 H24            0.3646    -2.5557     0.4749 H       
@<TRIPOS>BOND
   1    1    2 ar
   2    1    6 ar
   3    1   17 1
   4    2    3 ar
   5    2   18 1
   6    3    4 ar
   7    3   15 1
   8    4    5 ar
   9    5    6 ar
  10    5    7 1
  11    6   19 1
  12    7    8 am
  13    7   20 1
  14    8    9 1
  15    8   10 2
  16    9   11 2
  17    9   14 1
  18   11   12 1
  19   12   13 2
  20   12   16 1
  21   13   14 1
  22   13   21 1
  23   15   22 1
  24   15   23 1
  25   15   24 1

#	End of record

