#	Name: ASD00310172
#	Creating user name:	WinNT
#	Creation time:	15. 06. 2019 18:33

#	Modifying user name:	WinNT
#	Modification time:	15. 06. 2019 18:33

#	Program:	/corina/corina34_cracker 3.40 0067  02.08.2006

@<TRIPOS>MOLECULE
ASD00310172
  28   29    0    0    0
SMALL
NO_CHARGES


@<TRIPOS>ATOM
   1 N1            -0.0179     1.4702     0.0101 N.3     
   2 C2             0.0021    -0.0041     0.0020 C.3     
   3 C3             1.4820    -0.4413     0.0110 C.3     
   4 C4             2.2089     0.7978     0.5967 C.3     
   5 C5             1.3770     1.9600    -0.0006 C.3     
   6 O6             1.6671    -1.5807     0.8533 O.3     
   7 C7            -1.8605     2.7670    -0.8917 C.ar    
   8 C8            -0.7332     1.9684    -1.0859 C.ar    
   9 C9            -0.3304     1.6752    -2.3829 C.ar    
  10 C10           -1.0702     2.1916    -3.4372 C.ar    
  11 C11           -2.1758     2.9753    -3.1685 C.ar    
  12 N12           -2.5364     3.2379    -1.9249 N.ar    
  13 O13           -2.2701     3.0579     0.3697 O.3     
  14 C14           -3.4312     3.8804     0.5012 C.3     
  15 Cl15          -3.1049     3.6239    -4.4837 Cl      
  16 H16           -0.5030    -0.3866     0.8889 H       
  17 H17           -0.4892    -0.3766    -0.8968 H       
  18 H18            1.8287    -0.6487    -1.0014 H       
  19 H19            2.1590     0.8012     1.6856 H       
  20 H20            3.2429     0.8417     0.2547 H       
  21 H21            1.6974     2.1707    -1.0209 H       
  22 H22            1.4709     2.8516     0.6194 H       
  23 H23            2.5805    -1.8956     0.8938 H       
  24 H24            0.5382     1.0601    -2.5661 H       
  25 H25           -0.7843     1.9833    -4.4576 H       
  26 H26           -3.6489     4.0352     1.5580 H       
  27 H27           -3.2508     4.8429     0.0226 H       
  28 H28           -4.2796     3.3904     0.0235 H       
@<TRIPOS>BOND
   1    1    2 1
   2    1    5 1
   3    1    8 1
   4    2    3 1
   5    2   16 1
   6    2   17 1
   7    3    4 1
   8    3    6 1
   9    3   18 1
  10    4    5 1
  11    4   19 1
  12    4   20 1
  13    5   21 1
  14    5   22 1
  15    6   23 1
  16    7    8 ar
  17    7   12 ar
  18    7   13 1
  19    8    9 ar
  20    9   10 ar
  21    9   24 1
  22   10   11 ar
  23   10   25 1
  24   11   12 ar
  25   11   15 1
  26   13   14 1
  27   14   26 1
  28   14   27 1
  29   14   28 1

#	End of record

