#	Name: ASD00841050
#	Creating user name:	WinNT
#	Creation time:	15. 06. 2019 18:41

#	Modifying user name:	WinNT
#	Modification time:	15. 06. 2019 18:41

#	Program:	/corina/corina34_cracker 3.40 0067  02.08.2006

@<TRIPOS>MOLECULE
ASD00841050
  85   90    0    0    0
SMALL
NO_CHARGES


@<TRIPOS>ATOM
   1 N1            -0.0159     1.3183     0.0093 N.ar    
   2 C2             0.0021    -0.0041     0.0020 C.ar    
   3 C3             1.2069    -0.6955    -0.0132 C.ar    
   4 C4             2.3925     0.0180    -0.0207 C.ar    
   5 C5             2.3308     1.4049    -0.0127 C.ar    
   6 C6             1.0980     2.0259     0.0025 C.ar    
   7 C7             1.2224    -2.2024    -0.0209 C.3     
   8 C8             0.4763    -2.7343    -1.2260 C.2     
   9 O9             2.5880    -2.6958    -0.0096 O.3     
  10 C10            3.3814    -2.3221    -1.0311 C.2     
  11 N11            4.6601    -2.7453    -1.0809 N.am    
  12 O12            2.9448    -1.6033    -1.9081 O.2     
  13 C13            5.5381    -2.3459    -2.1892 C.3     
  14 C14            6.1425    -3.6054    -2.8179 C.3     
  15 C15            6.8369    -4.4300    -1.7316 C.3     
  16 C16            5.8107    -4.8596    -0.6806 C.3     
  17 C17            5.2042    -3.6097    -0.0248 C.3     
  18 C18            7.4715    -5.6715    -2.3616 C.3     
  19 C19            8.4998    -5.2434    -3.4122 C.3     
  20 C20            9.1744    -6.4872    -3.9952 C.3     
  21 N21            9.8319    -7.2389    -2.9187 N.3     
  22 C22            8.8575    -7.7012    -1.9220 C.3     
  23 C23            8.1734    -6.4936    -1.2772 C.3     
  24 C24           10.6062    -8.3642    -3.4592 C.3     
  25 O25            0.7557    -2.5393    -2.3900 O.2     
  26 N26           -0.5539    -3.4626    -0.7638 N.am    
  27 C27            0.4501    -2.7460     1.1591 C.ar    
  28 C28           -0.5980    -3.4898     0.6311 C.ar    
  29 C29            0.6149    -2.6258     2.5206 C.ar    
  30 C30           -0.2710    -3.2513     3.3818 C.ar    
  31 C31           -1.3206    -3.9961     2.8679 C.ar    
  32 C32           -1.4864    -4.1171     1.5014 C.ar    
  33 Cl33          -0.0671    -3.1033     5.0994 Cl      
  34 F34           -2.1857    -4.6069     3.7068 F       
  35 C35           -1.0174    -5.8570    -2.0393 C.ar    
  36 C36           -1.3468    -6.8961    -1.1893 C.ar    
  37 C37           -0.1996    -6.0885    -3.1295 C.ar    
  38 C38            0.2888    -7.3591    -3.3696 C.ar    
  39 C39           -0.0402    -8.3982    -2.5194 C.ar    
  40 C40           -0.8580    -8.1667    -1.4292 C.ar    
  41 H41            0.3414    -9.3910    -2.7070 H       
  42 H42           -1.9857    -6.7153    -0.3375 H       
  43 C43           11.4702    -8.9682    -2.3503 C.3     
  44 S44           -1.6459    -4.2388    -1.7372 S.o2    
  45 O45           -2.8262    -4.4047    -0.9636 O.2     
  46 O46           -1.6238    -3.5603    -2.9856 O.2     
  47 O47           -1.1673    -0.6919     0.0099 O.3     
  48 C48           -3.5777    -0.8652     0.0330 C.3     
  49 C49           -2.3720     0.0766     0.0260 C.3     
  50 H50            3.3442    -0.4925    -0.0322 H       
  51 H51            3.2375     1.9916    -0.0178 H       
  52 H52            1.0444     3.1046     0.0084 H       
  53 H53            4.9588    -1.8057    -2.9380 H       
  54 H54            6.3363    -1.7072    -1.8110 H       
  55 H55            5.3512    -4.1992    -3.2754 H       
  56 H56            6.8694    -3.3196    -3.5781 H       
  57 H57            7.6116    -3.8273    -1.2576 H       
  58 H58            5.0225    -5.4416    -1.1583 H       
  59 H59            6.3014    -5.4664     0.0803 H       
  60 H60            5.9766    -3.0766     0.5294 H       
  61 H61            4.4031    -3.9050     0.6529 H       
  62 H62            6.6975    -6.2760    -2.8345 H       
  63 H63            7.9986    -4.6939    -4.2092 H       
  64 H64            9.2516    -4.6059    -2.9470 H       
  65 H65            8.4239    -7.1175    -4.4723 H       
  66 H66            9.9173    -6.1851    -4.7334 H       
  67 H67            8.1086    -8.3258    -2.4089 H       
  68 H68            9.3703    -8.2809    -1.1545 H       
  69 H69            8.9201    -5.8758    -0.7783 H       
  70 H70            7.4391    -6.8374    -0.5487 H       
  71 H71            9.9246    -9.1232    -3.8429 H       
  72 H72           11.2470    -8.0097    -4.2666 H       
  73 H73            1.4345    -2.0447     2.9166 H       
  74 H74           -2.3067    -4.6987     1.1074 H       
  75 H75            0.0575    -5.2766    -3.7937 H       
  76 H76            0.9272    -7.5401    -4.2218 H       
  77 H77           -1.1153    -8.9786    -0.7651 H       
  78 H78           12.1518    -8.2091    -1.9666 H       
  79 H79           10.8294    -9.3226    -1.5429 H       
  80 H80           12.0447    -9.8031    -2.7514 H       
  81 H81           -3.5390    -1.4986     0.9192 H       
  82 H82           -4.4966    -0.2790     0.0452 H       
  83 H83           -3.5566    -1.4891    -0.8606 H       
  84 H84           -2.3931     0.7004     0.9196 H       
  85 H85           -2.4108     0.7099    -0.8602 H       
@<TRIPOS>BOND
   1    1    2 ar
   2    1    6 ar
   3    2    3 ar
   4    2   47 1
   5    3    4 ar
   6    3    7 1
   7    4    5 ar
   8    4   50 1
   9    5    6 ar
  10    5   51 1
  11    6   52 1
  12    7    8 1
  13    7    9 1
  14    7   27 1
  15    8   25 2
  16    8   26 am
  17    9   10 1
  18   10   11 am
  19   10   12 2
  20   11   13 1
  21   11   17 1
  22   13   14 1
  23   13   53 1
  24   13   54 1
  25   14   15 1
  26   14   55 1
  27   14   56 1
  28   15   16 1
  29   15   18 1
  30   15   57 1
  31   16   17 1
  32   16   58 1
  33   16   59 1
  34   17   60 1
  35   17   61 1
  36   18   19 1
  37   18   23 1
  38   18   62 1
  39   19   20 1
  40   19   63 1
  41   19   64 1
  42   20   21 1
  43   20   65 1
  44   20   66 1
  45   21   22 1
  46   21   24 1
  47   22   23 1
  48   22   67 1
  49   22   68 1
  50   23   69 1
  51   23   70 1
  52   24   43 1
  53   24   71 1
  54   24   72 1
  55   26   44 am
  56   26   28 1
  57   27   28 ar
  58   27   29 ar
  59   28   32 ar
  60   29   30 ar
  61   29   73 1
  62   30   31 ar
  63   30   33 1
  64   31   32 ar
  65   31   34 1
  66   32   74 1
  67   35   36 ar
  68   35   37 ar
  69   35   44 1
  70   36   42 1
  71   36   40 ar
  72   37   38 ar
  73   37   75 1
  74   38   39 ar
  75   38   76 1
  76   39   40 ar
  77   39   41 1
  78   40   77 1
  79   43   78 1
  80   43   79 1
  81   43   80 1
  82   44   45 2
  83   44   46 2
  84   47   49 1
  85   48   49 1
  86   48   81 1
  87   48   82 1
  88   48   83 1
  89   49   84 1
  90   49   85 1

#	End of record

