#	Name: ASD03200072
#	Creating user name:	WinNT
#	Creation time:	15. 06. 2019 20:34

#	Modifying user name:	WinNT
#	Modification time:	15. 06. 2019 20:34

#	Program:	/corina/corina34_cracker 3.40 0067  02.08.2006

@<TRIPOS>MOLECULE
ASD03200072
  30   32    0    0    0
SMALL
NO_CHARGES


@<TRIPOS>ATOM
   1 C1            -0.0180     1.4735     0.0101 C.ar    
   2 C2             4.7545     4.4554     0.0500 C.ar    
   3 C3             4.7143     5.8382     0.0518 C.ar    
   4 C4             2.3190     5.7827     0.0396 C.ar    
   5 C5             3.5818     3.7284     0.0372 C.ar    
   6 C6             2.3543     4.3895     0.0320 C.ar    
   7 C7             1.0909     3.6132     0.0244 C.ar    
   8 C8            -3.6239     3.6898    -0.0031 C.ar    
   9 C9             1.1576     2.2116     0.0168 C.ar    
  10 Cl10          -5.1990     1.4837    -0.0264 Cl      
  11 C11           -3.6650     2.2963    -0.0103 C.ar    
  12 C12           -2.4382     4.3575     0.0091 C.ar    
  13 C13           -2.5136     1.5632    -0.0067 C.ar    
  14 C14           -1.2781     2.2179     0.0054 C.ar    
  15 C15            0.0021    -0.0041     0.0020 C.2     
  16 O16            1.1723    -0.6612    -0.1144 O.3     
  17 O17           -1.0366    -0.6261     0.1003 O.2     
  18 C18           -1.2304     3.6352     0.0137 C.ar    
  19 N19           -0.0536     4.2628     0.0260 N.ar    
  20 C20            3.4990     6.5004     0.0466 C.ar    
  21 Br21           3.4540     8.3909     0.0571 Br      
  22 H22            5.7056     3.9439     0.0541 H       
  23 H23            5.6348     6.4032     0.0577 H       
  24 H24            1.3710     6.3000     0.0353 H       
  25 H25            3.6147     2.6489     0.0309 H       
  26 H26           -4.5482     4.2486    -0.0065 H       
  27 H27            2.1149     1.7116     0.0164 H       
  28 H28           -2.4241     5.4374     0.0149 H       
  29 H29           -2.5566     0.4841    -0.0120 H       
  30 H30            1.1351    -1.6275    -0.1148 H       
@<TRIPOS>BOND
   1    1   15 1
   2    1    9 ar
   3    1   14 ar
   4    2   22 1
   5    2    3 ar
   6    2    5 ar
   7    3   23 1
   8    3   20 ar
   9    4    6 ar
  10    4   20 ar
  11    4   24 1
  12    5   25 1
  13    5    6 ar
  14    6    7 1
  15    7    9 ar
  16    7   19 ar
  17    8   11 ar
  18    8   12 ar
  19    8   26 1
  20    9   27 1
  21   10   11 1
  22   11   13 ar
  23   12   18 ar
  24   12   28 1
  25   13   14 ar
  26   13   29 1
  27   14   18 ar
  28   15   16 1
  29   15   17 2
  30   16   30 1
  31   18   19 ar
  32   20   21 1

#	End of record

