#	Name: ASD03331413
#	Creating user name:	WinNT
#	Creation time:	15. 06. 2019 20:39

#	Modifying user name:	WinNT
#	Modification time:	15. 06. 2019 20:39

#	Program:	/corina/corina34_cracker 3.40 0067  02.08.2006

@<TRIPOS>MOLECULE
ASD03331413
  79   83    0    0    0
SMALL
NO_CHARGES


@<TRIPOS>ATOM
   1 N1            -2.0341     3.7856     7.3920 N.3     
   2 C2            -0.7787     4.3469     7.9071 C.3     
   3 C3            -0.9448     4.6984     9.3873 C.3     
   4 C4            -1.3192     3.4354    10.1678 C.3     
   5 C5            -2.6035     2.8438     9.5804 C.3     
   6 C6            -2.3893     2.5461     8.0946 C.3     
   7 N7            -2.8071     3.9322     3.2695 N.am    
   8 C8            -3.1649     2.6771     3.9442 C.3     
   9 C9            -3.2628     2.9376     5.4506 C.3     
  10 C10           -1.9562     3.5649     5.9418 C.3     
  11 C11           -1.7331     4.9032     5.2336 C.3     
  12 C12           -1.6178     4.6649     3.7248 C.3     
  13 C13           -0.8081     2.6379     5.6360 C.2     
  14 O14            0.2067     3.0741     5.1350 O.2     
  15 N15           -0.9090     1.3241     5.9192 N.am    
  16 C16           -3.5526     4.3998     2.2486 C.2     
  17 O17           -3.3017     5.4846     1.7593 O.2     
  18 N18           -6.6587     3.0089     0.9464 N.pl3   
  19 C19           -5.9236     4.0606     1.3841 C.2     
  20 C20           -4.6712     3.5969     1.7255 C.2     
  21 C21           -4.6635     2.1995     1.4776 C.2     
  22 C22           -5.8913     1.8691     1.0022 C.2     
  23 C23           -6.3942     5.4890     1.4806 C.3     
  24 C24           -7.0100     5.7309     2.8601 C.3     
  25 C25           -7.4878     7.1811     2.9581 C.3     
  26 C26           -8.1036     7.4231     4.3377 C.3     
  27 O27           -8.5498     8.7776     4.4292 O.3     
  28 C28           -6.3296     0.5123     0.6099 C.ar    
  29 C29           -5.5477    -0.2538    -0.2577 C.ar    
  30 C30           -5.9623    -1.5198    -0.6196 C.ar    
  31 C31           -7.1504    -2.0299    -0.1240 C.ar    
  32 C32           -7.9294    -1.2746     0.7359 C.ar    
  33 C33           -7.5229    -0.0101     1.1095 C.ar    
  34 Cl34          -7.6656    -3.6227    -0.5834 Cl      
  35 Cl35          -4.0583     0.3850    -0.8801 Cl      
  36 C36           -7.9896     3.0721     0.5121 C.ar    
  37 C37           -8.2945     2.8696    -0.8272 C.ar    
  38 C38           -9.6069     2.9320    -1.2527 C.ar    
  39 C39          -10.6178     3.1961    -0.3452 C.ar    
  40 C40          -10.3165     3.3987     0.9902 C.ar    
  41 C41           -9.0062     3.3317     1.4215 C.ar    
  42 Cl42         -12.2666     3.2738    -0.8831 Cl      
  43 H43            0.0199     3.6135     7.7954 H       
  44 H44           -0.5261     5.2468     7.3463 H       
  45 H45           -0.0081     5.1004     9.7732 H       
  46 H46           -1.7339     5.4421     9.4983 H       
  47 H47           -0.5130     2.7061    10.0890 H       
  48 H48           -1.4810     3.6892    11.2154 H       
  49 H49           -2.8519     1.9208    10.1043 H       
  50 H50           -3.4187     3.5583     9.6945 H       
  51 H51           -3.3065     2.1380     7.6700 H       
  52 H52           -1.5832     1.8211     7.9821 H       
  53 H53           -4.1259     2.3228     3.5714 H       
  54 H54           -2.3973     1.9274     3.7522 H       
  55 H55           -4.0904     3.6186     5.6490 H       
  56 H56           -3.4329     1.9958     5.9724 H       
  57 H57           -2.5751     5.5657     5.4341 H       
  58 H58           -0.8143     5.3605     5.6010 H       
  59 H59           -0.7240     4.0774     3.5148 H       
  60 H60           -1.5580     5.6224     3.2072 H       
  61 H61           -1.7490     0.9602     6.2398 H       
  62 H62           -0.1415     0.7424     5.8023 H       
  63 H63           -3.8354     1.5249     1.6377 H       
  64 H64           -5.5479     6.1608     1.3376 H       
  65 H65           -7.1422     5.6779     0.7106 H       
  66 H66           -7.8564     5.0591     3.0031 H       
  67 H67           -6.2621     5.5420     3.6301 H       
  68 H68           -6.6414     7.8530     2.8151 H       
  69 H69           -8.2358     7.3701     2.1881 H       
  70 H70           -8.9500     6.7513     4.4806 H       
  71 H71           -7.3556     7.2342     5.1077 H       
  72 H72           -8.9523     9.0025     5.2792 H       
  73 H73           -5.3592    -2.1133    -1.2906 H       
  74 H74           -8.8553    -1.6779     1.1188 H       
  75 H75           -8.1293     0.5759     1.7842 H       
  76 H76           -7.5058     2.6638    -1.5359 H       
  77 H77           -9.8445     2.7749    -2.2944 H       
  78 H78          -11.1071     3.6050     1.6964 H       
  79 H79           -8.7721     3.4851     2.4646 H       
@<TRIPOS>BOND
   1    1    2 1
   2    1    6 1
   3    1   10 1
   4    2    3 1
   5    2   43 1
   6    2   44 1
   7    3    4 1
   8    3   45 1
   9    3   46 1
  10    4    5 1
  11    4   47 1
  12    4   48 1
  13    5    6 1
  14    5   49 1
  15    5   50 1
  16    6   51 1
  17    6   52 1
  18    7    8 1
  19    7   12 1
  20    7   16 am
  21    8    9 1
  22    8   53 1
  23    8   54 1
  24    9   10 1
  25    9   55 1
  26    9   56 1
  27   10   11 1
  28   10   13 1
  29   11   12 1
  30   11   57 1
  31   11   58 1
  32   12   59 1
  33   12   60 1
  34   13   14 2
  35   13   15 am
  36   15   61 1
  37   15   62 1
  38   16   17 2
  39   16   20 1
  40   18   19 1
  41   18   22 1
  42   18   36 1
  43   19   20 2
  44   19   23 1
  45   20   21 1
  46   21   22 2
  47   21   63 1
  48   22   28 1
  49   23   24 1
  50   23   64 1
  51   23   65 1
  52   24   25 1
  53   24   66 1
  54   24   67 1
  55   25   26 1
  56   25   68 1
  57   25   69 1
  58   26   27 1
  59   26   70 1
  60   26   71 1
  61   27   72 1
  62   28   29 ar
  63   28   33 ar
  64   29   30 ar
  65   29   35 1
  66   30   31 ar
  67   30   73 1
  68   31   32 ar
  69   31   34 1
  70   32   33 ar
  71   32   74 1
  72   33   75 1
  73   36   37 ar
  74   36   41 ar
  75   37   38 ar
  76   37   76 1
  77   38   39 ar
  78   38   77 1
  79   39   40 ar
  80   39   42 1
  81   40   41 ar
  82   40   78 1
  83   41   79 1

#	End of record

