#	Name: ASD01918278
#	Creating user name:	WinNT
#	Creation time:	15. 06. 2019 20:11

#	Modifying user name:	WinNT
#	Modification time:	15. 06. 2019 20:11

#	Program:	/corina/corina34_cracker 3.40 0067  02.08.2006

@<TRIPOS>MOLECULE
ASD01918278
  46   49    0    0    0
SMALL
NO_CHARGES


@<TRIPOS>ATOM
   1 F1             0.0031    -0.0040    -0.0002 F       
   2 C2            -0.0153     1.3468     0.0079 C.ar    
   3 C3            -0.6321     2.0355    -1.0255 C.ar    
   4 C4            -0.6541     3.4136    -1.0220 C.ar    
   5 C5            -0.0538     4.1164     0.0249 C.ar    
   6 C6             0.5661     3.4178     1.0632 C.ar    
   7 C7             0.5777     2.0395     1.0524 C.ar    
   8 C8            -0.0738     5.5934     0.0337 C.2     
   9 O9            -1.1320     6.1874    -0.0395 O.2     
  10 N10            1.0810     6.2826     0.1230 N.am    
  11 C11            1.0619     7.7324     0.0267 C.3     
  12 C12            1.4324     8.4420     1.3147 C.3     
  13 C13            2.9012     8.2040     1.6744 C.3     
  14 C14            2.9991     6.8582     2.3809 C.2     
  15 N15            3.3590     6.7128     3.6507 N.2     
  16 C16            3.3699     5.5221     4.1412 C.2     
  17 C17            3.7417     5.1764     5.5602 C.3     
  18 O18            2.5719     5.2084     6.3803 O.3     
  19 C19            2.7341     4.9180     7.6980 C.ar    
  20 C20            3.9942     4.6141     8.1925 C.ar    
  21 C21            4.1565     4.3197     9.5324 C.ar    
  22 C22            3.0644     4.3272    10.3804 C.ar    
  23 C23            1.8074     4.6293     9.8899 C.ar    
  24 C24            1.6408     4.9304     8.5519 C.ar    
  25 S25            2.9010     4.3903     2.9476 S.3     
  26 C26            2.7215     5.6912     1.7842 C.2     
  27 C27            2.3465     5.5590     0.3230 C.3     
  28 H28           -1.0957     1.4910    -1.8348 H       
  29 H29           -1.1345     3.9491    -1.8276 H       
  30 H30            1.0318     3.9564     1.8752 H       
  31 H31            1.0529     1.4981     1.8571 H       
  32 H32            1.7614     8.0379    -0.7515 H       
  33 H33            0.0609     8.0476    -0.2677 H       
  34 H34            1.2627     9.5120     1.1948 H       
  35 H35            0.8019     8.0695     2.1220 H       
  36 H36            3.5051     8.1888     0.7671 H       
  37 H37            3.2511     8.9949     2.3377 H       
  38 H38            4.1780     4.1779     5.5884 H       
  39 H39            4.4665     5.9003     5.9326 H       
  40 H40            4.8474     4.6074     7.5305 H       
  41 H41            5.1372     4.0831     9.9179 H       
  42 H42            3.1933     4.0964    11.4275 H       
  43 H43            0.9559     4.6342    10.5541 H       
  44 H44            0.6595     5.1706     8.1702 H       
  45 H45            2.2161     4.5067     0.0706 H       
  46 H46            3.1266     5.9969    -0.2998 H       
@<TRIPOS>BOND
   1    1    2 1
   2    2    7 ar
   3    2    3 ar
   4    3    4 ar
   5    3   28 1
   6    4    5 ar
   7    4   29 1
   8    5    6 ar
   9    5    8 1
  10    6    7 ar
  11    6   30 1
  12    7   31 1
  13    8    9 2
  14    8   10 am
  15   10   27 1
  16   10   11 1
  17   11   12 1
  18   11   32 1
  19   11   33 1
  20   12   13 1
  21   12   34 1
  22   12   35 1
  23   13   14 1
  24   13   36 1
  25   13   37 1
  26   14   26 2
  27   14   15 1
  28   15   16 2
  29   16   17 1
  30   16   25 1
  31   17   18 1
  32   17   38 1
  33   17   39 1
  34   18   19 1
  35   19   24 ar
  36   19   20 ar
  37   20   21 ar
  38   20   40 1
  39   21   22 ar
  40   21   41 1
  41   22   23 ar
  42   22   42 1
  43   23   24 ar
  44   23   43 1
  45   24   44 1
  46   25   26 1
  47   26   27 1
  48   27   45 1
  49   27   46 1

#	End of record

