#	Name: ASD03330853
#	Creating user name:	WinNT
#	Creation time:	15. 06. 2019 20:38

#	Modifying user name:	WinNT
#	Modification time:	15. 06. 2019 20:38

#	Program:	/corina/corina34_cracker 3.40 0067  02.08.2006

@<TRIPOS>MOLECULE
ASD03330853
  59   61    0    0    0
SMALL
NO_CHARGES


@<TRIPOS>ATOM
   1 N1            -0.2129     1.1828    -0.6240 N.pl3   
   2 C2            -0.2646    -0.1443    -0.3665 C.2     
   3 C3             0.9244    -1.0458    -0.1594 C.3     
   4 N4             1.8572    -0.4065     0.7815 N.3     
   5 C5             2.8152     0.4491     0.0784 C.3     
   6 C6             2.1714     1.0951    -1.1453 C.3     
   7 C7             1.0083     1.9891    -0.7072 C.3     
   8 C8            -1.4960     1.6216    -0.7768 C.2     
   9 N9            -2.3090     0.6068    -0.6019 N.2     
  10 C10           -1.5802    -0.4995    -0.3437 C.2     
  11 C11           -2.1117    -1.8494    -0.0838 C.2     
  12 O12           -1.3494    -2.7709     0.1373 O.2     
  13 N13           -3.4425    -2.0627    -0.0911 N.am    
  14 C14            2.5500    -1.4106     1.6000 C.3     
  15 C15           -3.5129     4.6024    -1.8702 C.ar    
  16 C16           -3.1747     3.2896    -1.5947 C.ar    
  17 C17           -1.9026     3.0103    -1.0870 C.ar    
  18 C18           -1.0238     4.0802    -0.8797 C.ar    
  19 C19           -1.4423     5.3588    -1.1813 C.ar    
  20 N20           -2.6522     5.5816    -1.6593 N.ar    
  21 F21           -4.7371     4.8857    -2.3665 F       
  22 C22           -5.3291    -3.5410    -0.4708 C.2     
  23 C23           -3.9707    -3.4045     0.1673 C.3     
  24 C24           -4.0920    -3.6229     1.6767 C.3     
  25 C25           -5.1166    -2.6435     2.2530 C.3     
  26 O26           -6.0118    -2.5566    -0.6602 O.2     
  27 N27           -5.7854    -4.7569    -0.8310 N.am    
  28 C28           -7.1490    -4.9048    -1.3456 C.3     
  29 C29           -4.5484    -5.0576     1.9494 C.3     
  30 C30           -2.7324    -3.3860     2.3372 C.3     
  31 H31            0.5914    -1.9998     0.2495 H       
  32 H32            1.4258    -1.2123    -1.1128 H       
  33 H33            3.1623     1.2300     0.7551 H       
  34 H34            3.6666    -0.1525    -0.2400 H       
  35 H35            2.9134     1.6970    -1.6700 H       
  36 H36            1.7995     0.3174    -1.8123 H       
  37 H37            0.8685     2.7880    -1.4355 H       
  38 H38            1.2278     2.4198     0.2698 H       
  39 H39           -4.0504    -1.3277    -0.2674 H       
  40 H40            3.0556    -2.1239     0.9492 H       
  41 H41            3.2836    -0.9166     2.2371 H       
  42 H42            1.8247    -1.9362     2.2211 H       
  43 H43           -3.8827     2.4928    -1.7687 H       
  44 H44           -0.0322     3.9065    -0.4886 H       
  45 H45           -0.7707     6.1898    -1.0240 H       
  46 H46           -3.2949    -4.1484    -0.2544 H       
  47 H47           -6.0852    -2.8123     1.7825 H       
  48 H48           -5.2030    -2.7992     3.3284 H       
  49 H49           -4.7914    -1.6215     2.0588 H       
  50 H50           -5.2108    -5.5342    -0.7496 H       
  51 H51           -7.3366    -5.9522    -1.5820 H       
  52 H52           -7.8605    -4.5696    -0.5909 H       
  53 H53           -7.2646    -4.3026    -2.2468 H       
  54 H54           -3.7817    -5.7536     1.6092 H       
  55 H55           -4.7108    -5.1901     3.0190 H       
  56 H56           -5.4780    -5.2510     1.4141 H       
  57 H57           -2.4073    -2.3639     2.1429 H       
  58 H58           -2.8188    -3.5416     3.4126 H       
  59 H59           -2.0025    -4.0837     1.9266 H       
@<TRIPOS>BOND
   1    1    2 1
   2    1    7 1
   3    1    8 1
   4    2    3 1
   5    2   10 2
   6    3    4 1
   7    3   31 1
   8    3   32 1
   9    4    5 1
  10    4   14 1
  11    5    6 1
  12    5   33 1
  13    5   34 1
  14    6    7 1
  15    6   35 1
  16    6   36 1
  17    7   37 1
  18    7   38 1
  19    8    9 2
  20    8   17 1
  21    9   10 1
  22   10   11 1
  23   11   12 2
  24   11   13 am
  25   13   23 1
  26   13   39 1
  27   14   40 1
  28   14   41 1
  29   14   42 1
  30   15   16 ar
  31   15   20 ar
  32   15   21 1
  33   16   17 ar
  34   16   43 1
  35   17   18 ar
  36   18   19 ar
  37   18   44 1
  38   19   20 ar
  39   19   45 1
  40   22   26 2
  41   22   27 am
  42   22   23 1
  43   23   24 1
  44   23   46 1
  45   24   25 1
  46   24   29 1
  47   24   30 1
  48   25   47 1
  49   25   48 1
  50   25   49 1
  51   27   28 1
  52   27   50 1
  53   28   51 1
  54   28   52 1
  55   28   53 1
  56   29   54 1
  57   29   55 1
  58   29   56 1
  59   30   57 1
  60   30   58 1
  61   30   59 1

#	End of record

