#	Name: ASD01720098
#	Creating user name:	WinNT
#	Creation time:	15. 06. 2019 19:23

#	Modifying user name:	WinNT
#	Modification time:	15. 06. 2019 19:23

#	Program:	/corina/corina34_cracker 3.40 0067  02.08.2006

@<TRIPOS>MOLECULE
ASD01720098
  65   68    0    0    0
SMALL
NO_CHARGES


@<TRIPOS>ATOM
   1 C1            -0.6356     1.6259     0.2551 C.ar    
   2 C2            -0.7481     0.2633     0.3184 C.ar    
   3 C3             0.3764    -0.5062     0.6119 C.ar    
   4 N4             1.5545     0.0611     0.8308 N.ar    
   5 C5             1.7110     1.3727     0.7803 C.ar    
   6 C6             0.6196     2.2066     0.4899 C.ar    
   7 N7             0.2613    -1.8843     0.6761 N.3     
   8 O8             2.9304     1.9148     1.0103 O.3     
   9 C9             3.9981     1.0105     1.3006 C.3     
  10 C10            5.2878     1.8011     1.5299 C.3     
  11 C11            6.4310     0.8329     1.8407 C.3     
  12 C12            6.7051    -0.0425     0.6162 C.3     
  13 C13            7.6906     1.6271     2.1922 C.3     
  14 C14            0.7898     3.6675     0.4323 C.2     
  15 O15            1.8824     4.1611     0.6375 O.2     
  16 C16            1.5677    -2.5131     0.9999 C.3     
  17 C17            1.4275    -3.9724     0.5161 C.3     
  18 C18            0.3317    -3.9315    -0.5689 C.3     
  19 C19           -0.0980    -2.4509    -0.6493 C.3     
  20 C20            1.7728    -4.2855    -0.9412 C.3     
  21 C21            2.0667    -5.7213    -1.2923 C.2     
  22 O22            2.0244    -6.5733    -0.4366 O.2     
  23 O23            2.3756    -6.0536    -2.5556 O.3     
  24 N24           -0.2650     4.4583     0.1521 N.am    
  25 C25           -0.1274     5.8493     0.1962 C.ar    
  26 C26           -1.0401     8.0121     0.6992 C.ar    
  27 C27           -1.1754     6.6376     0.6548 C.ar    
  28 C28            1.0583     6.4433    -0.2127 C.ar    
  29 C29            1.1910     7.8237    -0.1669 C.ar    
  30 C30            0.1368     8.6069     0.2880 C.ar    
  31 N31            2.3829     8.4255    -0.5771 N.am    
  32 S32            2.7413     8.5382    -2.1899 S.o2    
  33 O33            4.0004     9.1960    -2.2240 O.2     
  34 O34            2.5950     7.2106    -2.6749 O.2     
  35 C35            1.4445     9.6101    -2.8680 C.3     
  36 H36           -1.4935     2.2402     0.0249 H       
  37 H37           -1.7017    -0.2124     0.1426 H       
  38 H38            3.7573     0.4400     2.1976 H       
  39 H39            4.1345     0.3281     0.4617 H       
  40 H40            5.5286     2.3716     0.6329 H       
  41 H41            5.1514     2.4835     2.3689 H       
  42 H42            6.1528     0.2010     2.6842 H       
  43 H43            7.5195    -0.7323     0.8376 H       
  44 H44            5.8077    -0.6083     0.3658 H       
  45 H45            6.9833     0.5894    -0.2272 H       
  46 H46            7.4954     2.2507     3.0645 H       
  47 H47            8.5051     0.9373     2.4136 H       
  48 H48            7.9689     2.2590     1.3487 H       
  49 H49            2.3741    -2.0112     0.4652 H       
  50 H50            1.7474    -2.4846     2.0746 H       
  51 H51            1.4606    -4.7596     1.2693 H       
  52 H52           -0.4510    -4.6882    -0.6234 H       
  53 H53           -1.1725    -2.3754    -0.8164 H       
  54 H54            0.4477    -1.9392    -1.4421 H       
  55 H55            2.3467    -3.5408    -1.4927 H       
  56 H56            2.5562    -6.9870    -2.7324 H       
  57 H57           -1.1197     4.0626    -0.0801 H       
  58 H58           -1.8564     8.6225     1.0561 H       
  59 H59           -2.0970     6.1756     0.9767 H       
  60 H60            1.8761     5.8324    -0.5654 H       
  61 H61            0.2391     9.6815     0.3233 H       
  62 H62            3.0006     8.7775     0.0828 H       
  63 H63            1.5350    10.6072    -2.4370 H       
  64 H64            1.5529     9.6711    -3.9509 H       
  65 H65            0.4662     9.1961    -2.6236 H       
@<TRIPOS>BOND
   1    1    2 ar
   2    1    6 ar
   3    1   36 1
   4    2    3 ar
   5    2   37 1
   6    3    4 ar
   7    3    7 1
   8    4    5 ar
   9    5    6 ar
  10    5    8 1
  11    6   14 1
  12    7   16 1
  13    7   19 1
  14    8    9 1
  15    9   10 1
  16    9   38 1
  17    9   39 1
  18   10   11 1
  19   10   40 1
  20   10   41 1
  21   11   12 1
  22   11   13 1
  23   11   42 1
  24   12   43 1
  25   12   44 1
  26   12   45 1
  27   13   46 1
  28   13   47 1
  29   13   48 1
  30   14   15 2
  31   14   24 am
  32   16   17 1
  33   16   49 1
  34   16   50 1
  35   17   18 1
  36   17   20 1
  37   17   51 1
  38   18   19 1
  39   18   20 1
  40   18   52 1
  41   19   53 1
  42   19   54 1
  43   20   21 1
  44   20   55 1
  45   21   22 2
  46   21   23 1
  47   23   56 1
  48   24   25 1
  49   24   57 1
  50   25   28 ar
  51   25   27 ar
  52   26   27 ar
  53   26   30 ar
  54   26   58 1
  55   27   59 1
  56   28   29 ar
  57   28   60 1
  58   29   30 ar
  59   29   31 1
  60   30   61 1
  61   31   32 am
  62   31   62 1
  63   32   33 2
  64   32   34 2
  65   32   35 1
  66   35   63 1
  67   35   64 1
  68   35   65 1

#	End of record

