#	Name: ASD07330008
#	Creating user name:	WinNT
#	Creation time:	15. 06. 2019 21:11

#	Modifying user name:	WinNT
#	Modification time:	15. 06. 2019 21:11

#	Program:	/corina/corina34_cracker 3.40 0067  02.08.2006

@<TRIPOS>MOLECULE
ASD07330008
  58   61    0    0    0
SMALL
NO_CHARGES


@<TRIPOS>ATOM
   1 C1             0.0741     1.1157    -0.8588 C.ar    
   2 C2             0.0862    -0.0544    -0.1142 C.ar    
   3 N3             1.2013    -0.5488     0.3805 N.ar    
   4 C4             2.3716     0.0519     0.1886 C.ar    
   5 C5             2.4320     1.2483    -0.5615 C.ar    
   6 C6             1.2607     1.7878    -1.0934 C.ar    
   7 N7             3.5205    -0.4562     0.6980 N.2     
   8 C8             4.6663     0.1275     0.5135 C.2     
   9 N9             4.8155     1.2782    -0.1933 N.am    
  10 C10            3.7419     1.8844    -0.7528 C.2     
  11 O11            3.8578     2.9155    -1.3894 O.2     
  12 C12            6.0901     1.8422    -0.3439 C.ar    
  13 C13            6.9217     1.4150    -1.3705 C.ar    
  14 C14            8.1767     1.9711    -1.5186 C.ar    
  15 C15            8.6069     2.9566    -0.6419 C.ar    
  16 C16            7.7764     3.3838     0.3841 C.ar    
  17 C17            6.5192     2.8322     0.5300 C.ar    
  18 C18            5.8947    -0.5049     1.1153 C.3     
  19 C19            6.0318    -0.0652     2.5743 C.3     
  20 N20            5.7724    -1.9675     1.0542 N.3     
  21 C21            7.0950    -2.6069     1.0567 C.3     
  22 C22            6.9296    -4.1035     0.9933 C.ar    
  23 C23            6.6697    -4.7270    -0.2275 C.ar    
  24 C24            6.5183    -6.1134    -0.2778 C.ar    
  25 C25            6.6263    -6.8584     0.8783 C.ar    
  26 C26            6.8841    -6.2339     2.0858 C.ar    
  27 C27            7.0404    -4.8607     2.1416 C.ar    
  28 O28            9.8429     3.5034    -0.7880 O.3     
  29 C29           11.6331     5.0053    -0.1714 C.3     
  30 C30           10.2206     4.5130     0.1502 C.3     
  31 K31            4.4061    -2.4354    -3.1191 Du      
  32 F32            4.2832    -0.4580    -4.3068 F       
  33 F33            2.4741    -3.5818    -2.5813 F       
  34 F34            6.4611    -3.2665    -2.4691 F       
  35 B35            6.5477    -3.8725    -1.5389 Du      
  36 H36           -0.8547     1.4973    -1.2565 H       
  37 H37           -0.8439    -0.5734     0.0648 H       
  38 H38            1.2795     2.7005    -1.6705 H       
  39 H39            6.5870     0.6476    -2.0528 H       
  40 H40            8.8237     1.6386    -2.3169 H       
  41 H41            8.1120     4.1507     1.0665 H       
  42 H42            5.8726     3.1651     1.3285 H       
  43 H43            6.7761    -0.1903     0.5566 H       
  44 H44            6.8921    -0.5610     3.0239 H       
  45 H45            6.1719     1.0150     2.6166 H       
  46 H46            5.1291    -0.3362     3.1219 H       
  47 H47            5.2015    -2.3146     1.8103 H       
  48 H48            7.6644    -2.2673     0.1915 H       
  49 H49            7.6265    -2.3385     1.9697 H       
  50 H50            6.3167    -6.6020    -1.2196 H       
  51 H51            6.5090    -7.9314     0.8407 H       
  52 H52            6.9677    -6.8217     2.9880 H       
  53 H53            7.2414    -4.3792     3.0872 H       
  54 H54           11.9212     5.7754     0.5442 H       
  55 H55           12.3318     4.1711    -0.1084 H       
  56 H56           11.6526     5.4202    -1.1792 H       
  57 H57            9.5219     5.3473     0.0872 H       
  58 H58           10.2012     4.0981     1.1580 H       
@<TRIPOS>BOND
   1    1    2 ar
   2    1    6 ar
   3    1   36 1
   4    2    3 ar
   5    2   37 1
   6    3    4 ar
   7    4    5 ar
   8    4    7 1
   9    5    6 ar
  10    5   10 1
  11    6   38 1
  12    7    8 2
  13    8    9 1
  14    8   18 1
  15    9   10 am
  16    9   12 1
  17   10   11 2
  18   12   13 ar
  19   12   17 ar
  20   13   14 ar
  21   13   39 1
  22   14   15 ar
  23   14   40 1
  24   15   16 ar
  25   15   28 1
  26   16   17 ar
  27   16   41 1
  28   17   42 1
  29   18   19 1
  30   18   20 1
  31   18   43 1
  32   19   44 1
  33   19   45 1
  34   19   46 1
  35   20   21 1
  36   20   47 1
  37   21   22 1
  38   21   48 1
  39   21   49 1
  40   22   23 ar
  41   22   27 ar
  42   23   24 ar
  43   23   35 1
  44   24   25 ar
  45   24   50 1
  46   25   26 ar
  47   25   51 1
  48   26   27 ar
  49   26   52 1
  50   27   53 1
  51   28   30 1
  52   29   30 1
  53   29   54 1
  54   29   55 1
  55   29   56 1
  56   30   57 1
  57   30   58 1
  58   31   32 1
  59   31   33 1
  60   31   34 1
  61   34   35 2

#	End of record

