#	Name: ASD01820218
#	Creating user name:	WinNT
#	Creation time:	15. 06. 2019 19:36

#	Modifying user name:	WinNT
#	Modification time:	15. 06. 2019 19:36

#	Program:	/corina/corina34_cracker 3.40 0067  02.08.2006

@<TRIPOS>MOLECULE
ASD01820218
  65   68    0    0    0
SMALL
NO_CHARGES


@<TRIPOS>ATOM
   1 C1            -0.0169     1.3956     0.0097 C.ar    
   2 C2             0.0021    -0.0041     0.0020 C.ar    
   3 C3            -1.1957    -0.6892     0.0097 C.ar    
   4 N4            -2.3456    -0.0432     0.0237 N.ar    
   5 C5            -2.4087     1.2743     0.0309 C.ar    
   6 C6            -1.2600     2.0388     0.0309 C.ar    
   7 C7            -3.5919    -0.8132     0.0309 C.3     
   8 C8            -4.0126    -1.0891     1.4759 C.3     
   9 C9            -5.3142    -1.8932     1.4834 C.3     
  10 N10           -5.7170    -2.1573     2.8670 N.ar    
  11 C11           -6.4991    -1.2908     3.4811 C.ar    
  12 C12           -6.9033    -1.4999     4.7838 C.ar    
  13 C13           -6.4704    -2.6513     5.4519 C.ar    
  14 C14           -5.6415    -3.5430     4.7611 C.ar    
  15 C15           -5.2905    -3.2569     3.4577 C.ar    
  16 C16           -6.8766    -2.9176     6.8470 C.2     
  17 N17           -6.4663    -3.9868     7.4469 N.2     
  18 O18           -6.8557    -4.2420     8.7841 O.3     
  19 C19           -6.3298    -5.4576     9.3206 C.3     
  20 C20           -6.8054    -5.6272    10.7405 C.ar    
  21 C21            1.2398     2.1721     0.0019 C.2     
  22 N22            1.2013     3.4643     0.0092 N.2     
  23 O23            2.4059     4.2085     0.0017 O.3     
  24 C24            2.2143     5.6246     0.0111 C.3     
  25 C25            3.5548     6.3130     0.0020 C.ar    
  26 C26            4.1589     6.6355    -1.1999 C.ar    
  27 C27            5.3897     7.2675    -1.2076 C.ar    
  28 C28            6.0157     7.5766    -0.0147 C.ar    
  29 C29            5.4128     7.2542     1.1866 C.ar    
  30 C30            4.1792     6.6277     1.1956 C.ar    
  31 Cl31           3.3731     6.2469    -2.6983 Cl      
  32 Cl32           3.4221     6.2229     2.7045 Cl      
  33 C33           -7.9884    -6.2961    10.9988 C.ar    
  34 C34           -8.4245    -6.4515    12.3026 C.ar    
  35 C35           -7.6785    -5.9384    13.3470 C.ar    
  36 C36           -6.4966    -5.2696    13.0895 C.ar    
  37 C37           -6.0563    -5.1190    11.7865 C.ar    
  38 Cl38          -4.5718    -4.2789    11.4633 Cl      
  39 Cl39          -8.9258    -6.9400     9.6872 Cl      
  40 H40            0.9399    -0.5396    -0.0101 H       
  41 H41           -1.1915    -1.7692     0.0039 H       
  42 H42           -3.3726     1.7613     0.0416 H       
  43 H43           -1.3191     3.1172     0.0368 H       
  44 H44           -4.3734    -0.2443    -0.4727 H       
  45 H45           -3.4379    -1.7586    -0.4894 H       
  46 H46           -3.2311    -1.6580     1.9795 H       
  47 H47           -4.1665    -0.1437     1.9962 H       
  48 H48           -6.0957    -1.3243     0.9798 H       
  49 H49           -5.1602    -2.8386     0.9631 H       
  50 H50           -6.8275    -0.4052     2.9572 H       
  51 H51           -7.5435    -0.7858     5.2805 H       
  52 H52           -5.2853    -4.4432     5.2398 H       
  53 H53           -4.6514    -3.9387     2.9163 H       
  54 H54           -7.5164    -2.2191     7.3659 H       
  55 H55           -6.6740    -6.2991     8.7193 H       
  56 H56           -5.2406    -5.4208     9.3043 H       
  57 H57            2.1908     1.6602    -0.0099 H       
  58 H58            1.6479     5.9205    -0.8719 H       
  59 H59            1.6649     5.9109     0.9079 H       
  60 H60            5.8616     7.5190    -2.1460 H       
  61 H61            6.9764     8.0699    -0.0212 H       
  62 H62            5.9027     7.4953     2.1184 H       
  63 H63           -9.3483    -6.9734    12.5044 H       
  64 H64           -8.0193    -6.0599    14.3646 H       
  65 H65           -5.9144    -4.8683    13.9059 H       
@<TRIPOS>BOND
   1    1    2 ar
   2    1   21 1
   3    1    6 ar
   4    2    3 ar
   5    2   40 1
   6    3    4 ar
   7    3   41 1
   8    4    5 ar
   9    4    7 1
  10    5    6 ar
  11    5   42 1
  12    6   43 1
  13    7    8 1
  14    7   44 1
  15    7   45 1
  16    8    9 1
  17    8   46 1
  18    8   47 1
  19    9   10 1
  20    9   48 1
  21    9   49 1
  22   10   11 ar
  23   10   15 ar
  24   11   12 ar
  25   11   50 1
  26   12   13 ar
  27   12   51 1
  28   13   14 ar
  29   13   16 1
  30   14   15 ar
  31   14   52 1
  32   15   53 1
  33   16   17 2
  34   16   54 1
  35   17   18 1
  36   18   19 1
  37   19   20 1
  38   19   55 1
  39   19   56 1
  40   20   33 ar
  41   20   37 ar
  42   21   22 2
  43   21   57 1
  44   22   23 1
  45   23   24 1
  46   24   25 1
  47   24   58 1
  48   24   59 1
  49   25   26 ar
  50   25   30 ar
  51   26   27 ar
  52   26   31 1
  53   27   28 ar
  54   27   60 1
  55   28   29 ar
  56   28   61 1
  57   29   30 ar
  58   29   62 1
  59   30   32 1
  60   33   34 ar
  61   33   39 1
  62   34   35 ar
  63   34   63 1
  64   35   36 ar
  65   35   64 1
  66   36   37 ar
  67   36   65 1
  68   37   38 1

#	End of record

