#	Name: ASD09740112
#	Creating user name:	WinNT
#	Creation time:	15. 06. 2019 21:22

#	Modifying user name:	WinNT
#	Modification time:	15. 06. 2019 21:22

#	Program:	/corina/corina34_cracker 3.40 0067  02.08.2006

@<TRIPOS>MOLECULE
ASD09740112
  43   47    0    0    0
SMALL
NO_CHARGES


@<TRIPOS>ATOM
   1 N1            -0.0144     1.2085     0.0087 N.2     
   2 O2             0.0021    -0.0041     0.0020 O.3     
   3 C3             1.2061     1.6817    -0.0004 C.2     
   4 N4             2.0478     0.6282    -0.0141 N.2     
   5 C5             1.2718    -0.4439    -0.0125 C.2     
   6 C6             1.7134    -1.8448    -0.0238 C.2     
   7 C7             1.5925     3.1146     0.0031 C.ar    
   8 C8             2.9441     3.4713    -0.0083 C.ar    
   9 C9             3.3139     4.7863    -0.0052 C.ar    
  10 C10            2.3458     5.7824     0.0090 C.ar    
  11 C11            0.9818     5.4403     0.0202 C.ar    
  12 C12            0.6105     4.0954     0.0120 C.ar    
  13 C13            0.8998    -2.9371    -0.0219 C.2     
  14 C14            1.7449    -4.0720    -0.0355 C.2     
  15 C15            3.0248    -3.6082    -0.0450 C.2     
  16 O16            2.9932    -2.2685    -0.0437 O.3     
  17 C17            1.3181    -5.4939    -0.0385 C.ar    
  18 C18            0.3838    -5.9453     0.8910 C.ar    
  19 C19            1.8463    -6.3803    -0.9745 C.ar    
  20 C20            1.4458    -7.7012    -0.9731 C.ar    
  21 C21            0.5217    -8.1452    -0.0446 C.ar    
  22 C22           -0.0098    -7.2682     0.8836 C.ar    
  23 N23            2.3914     7.1617     0.0151 N.pl3   
  24 C24            1.1069     7.6100     0.0292 C.2     
  25 N25            0.2818     6.6043     0.0322 N.2     
  26 C26            0.6993     9.0608     0.0407 C.3     
  27 F27           -0.6502     9.1632     0.3950 F       
  28 F28            1.4796     9.7571     0.9699 F       
  29 F29            0.8902     9.6088    -1.2323 F       
  30 C30            4.2686    -4.4589    -0.0608 C.3     
  31 F31            4.6413    -4.7153    -1.3847 F       
  32 F32            5.3044    -3.7826     0.5926 F       
  33 F33            4.0148    -5.6684     0.5948 F       
  34 H34            3.7016     2.7015    -0.0194 H       
  35 H35            4.3607     5.0520    -0.0134 H       
  36 H36           -0.4337     3.8195     0.0201 H       
  37 H37           -0.1802    -2.9370    -0.0114 H       
  38 H38           -0.0316    -5.2613     1.6164 H       
  39 H39            2.5676    -6.0345    -1.7001 H       
  40 H40            1.8543    -8.3891    -1.6985 H       
  41 H41            0.2110    -9.1796    -0.0470 H       
  42 H42           -0.7308    -7.6201     1.6066 H       
  43 H43            3.1914     7.7102     0.0104 H       
@<TRIPOS>BOND
   1    1    2 1
   2    1    3 2
   3    2    5 1
   4    3    4 1
   5    3    7 1
   6    4    5 2
   7    5    6 1
   8    6   13 2
   9    6   16 1
  10    7    8 ar
  11    7   12 ar
  12    8    9 ar
  13    8   34 1
  14    9   10 ar
  15    9   35 1
  16   10   11 ar
  17   10   23 1
  18   11   12 ar
  19   11   25 1
  20   12   36 1
  21   13   14 1
  22   13   37 1
  23   14   15 2
  24   14   17 1
  25   15   16 1
  26   15   30 1
  27   17   18 ar
  28   17   19 ar
  29   18   22 ar
  30   18   38 1
  31   19   20 ar
  32   19   39 1
  33   20   21 ar
  34   20   40 1
  35   21   22 ar
  36   21   41 1
  37   22   42 1
  38   23   24 1
  39   23   43 1
  40   24   25 2
  41   24   26 1
  42   26   27 1
  43   26   28 1
  44   26   29 1
  45   30   31 1
  46   30   32 1
  47   30   33 1

#	End of record

