#	Name: ASD01411142
#	Creating user name:	WinNT
#	Creation time:	15. 06. 2019 19:19

#	Modifying user name:	WinNT
#	Modification time:	15. 06. 2019 19:19

#	Program:	/corina/corina34_cracker 3.40 0067  02.08.2006

@<TRIPOS>MOLECULE
ASD01411142
  44   46    0    0    0
SMALL
NO_CHARGES


@<TRIPOS>ATOM
   1 C1             0.4018     1.8900     1.0689 C.ar    
   2 C2             1.0640     0.8263     0.4537 C.ar    
   3 C3             2.1492     0.2423     1.0736 C.ar    
   4 C4             2.5816     0.7086     2.3024 C.ar    
   5 C5             1.9297     1.7626     2.9177 C.ar    
   6 C6             0.8432     2.3556     2.3087 C.ar    
   7 C7            -0.7580     2.5246     0.4077 C.2     
   8 N8            -1.3952     3.5515     1.0044 N.am    
   9 O9            -1.1370     2.1203    -0.6744 O.2     
  10 C10           -2.4289     4.2169     0.3357 C.2     
  11 C11           -2.3558     5.5552     0.1365 C.2     
  12 C12           -3.5915     3.4657    -0.1495 C.2     
  13 O13           -4.4463     4.0267    -0.8079 O.2     
  14 O14           -3.7126     2.1525     0.1346 O.3     
  15 C15           -1.1186     6.2794     0.4588 C.ar    
  16 C16            0.1006     5.5941     0.5206 C.ar    
  17 C17           -1.1541     7.6580     0.6996 C.ar    
  18 C18            0.0079     8.3318     1.0012 C.ar    
  19 C19            1.2152     7.6455     1.0669 C.ar    
  20 C20            1.2569     6.2774     0.8230 C.ar    
  21 O21            2.3583     8.3146     1.3643 O.3     
  22 C22            3.5171     7.6059     1.4184 C.ar    
  23 C23            5.1039     6.3099     2.6654 C.ar    
  24 C24            3.9247     7.0303     2.6131 C.ar    
  25 C25            4.2928     7.4515     0.2760 C.ar    
  26 C26            5.4712     6.7298     0.3348 C.ar    
  27 C27            5.8767     6.1620     1.5289 C.ar    
  28 F28            3.8963     8.0053    -0.8907 F       
  29 Br29           2.8690     7.2314     4.1690 Br      
  30 H30            0.7273     0.4612    -0.5053 H       
  31 H31            2.6623    -0.5810     0.5988 H       
  32 H32            3.4315     0.2477     2.7836 H       
  33 H33            2.2720     2.1216     3.8770 H       
  34 H34            0.3354     3.1785     2.7898 H       
  35 H35           -1.1373     3.8292     1.8972 H       
  36 H36           -3.2068     6.0896    -0.2591 H       
  37 H37           -4.4959     1.6999    -0.2068 H       
  38 H38            0.1340     4.5313     0.3316 H       
  39 H39           -2.0914     8.1922     0.6485 H       
  40 H40           -0.0183     9.3954     1.1868 H       
  41 H41            2.1980     5.7497     0.8709 H       
  42 H42            5.4215     5.8621     3.5955 H       
  43 H43            6.0749     6.6092    -0.5525 H       
  44 H44            6.7974     5.5991     1.5727 H       
@<TRIPOS>BOND
   1    1    2 ar
   2    1    6 ar
   3    1    7 1
   4    2    3 ar
   5    2   30 1
   6    3    4 ar
   7    3   31 1
   8    4    5 ar
   9    4   32 1
  10    5    6 ar
  11    5   33 1
  12    6   34 1
  13    7    8 am
  14    7    9 2
  15    8   10 1
  16    8   35 1
  17   10   11 2
  18   10   12 1
  19   11   15 1
  20   11   36 1
  21   12   13 2
  22   12   14 1
  23   14   37 1
  24   15   17 ar
  25   15   16 ar
  26   16   20 ar
  27   16   38 1
  28   17   18 ar
  29   17   39 1
  30   18   19 ar
  31   18   40 1
  32   19   20 ar
  33   19   21 1
  34   20   41 1
  35   21   22 1
  36   22   25 ar
  37   22   24 ar
  38   23   24 ar
  39   23   27 ar
  40   23   42 1
  41   24   29 1
  42   25   26 ar
  43   25   28 1
  44   26   27 ar
  45   26   43 1
  46   27   44 1

#	End of record

