#	Name: ASD01915547
#	Creating user name:	WinNT
#	Creation time:	15. 06. 2019 20:05

#	Modifying user name:	WinNT
#	Modification time:	15. 06. 2019 20:05

#	Program:	/corina/corina34_cracker 3.40 0067  02.08.2006

@<TRIPOS>MOLECULE
ASD01915547
  44   47    0    0    0
SMALL
NO_CHARGES


@<TRIPOS>ATOM
   1 C1            -0.0042     1.4685     0.2348 C.2     
   2 N2             0.0662     0.1191    -0.0301 N.pl3   
   3 C3            -1.1429    -0.6637    -0.3129 C.3     
   4 C4            -2.3280    -0.0486     0.4295 C.3     
   5 N5            -2.4044     1.3988     0.2637 N.am    
   6 C6            -1.2935     2.1742     0.2862 C.2     
   7 C7             1.2763     1.9058     0.4258 C.2     
   8 C8             2.0758     0.7649     0.2736 C.2     
   9 N9             1.2864    -0.2504     0.0108 N.2     
  10 C10            3.5773     0.7129     0.3910 C.3     
  11 O11            4.0777     2.0187     0.6853 O.3     
  12 C12            5.4234     2.1469     0.8242 C.ar    
  13 O13           -1.3589     3.3874     0.3461 O.2     
  14 C14            5.9775     3.3862     1.1102 C.ar    
  15 C15            6.2451     1.0377     0.6858 C.ar    
  16 C16            7.6128     1.1707     0.8275 C.ar    
  17 C17            8.1630     2.4080     1.1069 C.ar    
  18 C18            7.3458     3.5140     1.2509 C.ar    
  19 C19           -3.6531     1.9998     0.0771 C.ar    
  20 C20           -3.9642     2.5953    -1.1384 C.ar    
  21 C21           -5.1988     3.1877    -1.3195 C.ar    
  22 C22           -6.1242     3.1887    -0.2923 C.ar    
  23 C23           -5.8174     2.5970     0.9196 C.ar    
  24 C24           -4.5873     1.9976     1.1052 C.ar    
  25 C25           -6.8290     2.6009     2.0366 C.3     
  26 H26           -1.3403    -0.6538    -1.3848 H       
  27 H27           -0.9977    -1.6910     0.0213 H       
  28 H28           -3.2489    -0.4952     0.0544 H       
  29 H29           -2.2354    -0.2770     1.4913 H       
  30 H30            1.6015     2.9119     0.6458 H       
  31 H31            3.8557     0.0281     1.1920 H       
  32 H32            4.0034     0.3640    -0.5497 H       
  33 H33            5.3396     4.2505     1.2225 H       
  34 H34            5.8158     0.0709     0.4679 H       
  35 H35            8.2528     0.3074     0.7202 H       
  36 H36            9.2325     2.5099     1.2173 H       
  37 H37            7.7780     4.4794     1.4688 H       
  38 H38           -3.2415     2.5954    -1.9409 H       
  39 H39           -5.4413     3.6510    -2.2645 H       
  40 H40           -7.0886     3.6530    -0.4364 H       
  41 H41           -4.3484     1.5357     2.0518 H       
  42 H42           -7.4518     1.7092     1.9659 H       
  43 H43           -6.3112     2.6074     2.9957 H       
  44 H44           -7.4557     3.4891     1.9561 H       
@<TRIPOS>BOND
   1    1    2 1
   2    1    7 2
   3    1    6 1
   4    2    3 1
   5    2    9 1
   6    3    4 1
   7    3   26 1
   8    3   27 1
   9    4    5 1
  10    4   28 1
  11    4   29 1
  12    5    6 am
  13    5   19 1
  14    6   13 2
  15    7    8 1
  16    7   30 1
  17    8    9 2
  18    8   10 1
  19   10   11 1
  20   10   31 1
  21   10   32 1
  22   11   12 1
  23   12   14 ar
  24   12   15 ar
  25   14   18 ar
  26   14   33 1
  27   15   16 ar
  28   15   34 1
  29   16   17 ar
  30   16   35 1
  31   17   18 ar
  32   17   36 1
  33   18   37 1
  34   19   20 ar
  35   19   24 ar
  36   20   21 ar
  37   20   38 1
  38   21   22 ar
  39   21   39 1
  40   22   23 ar
  41   22   40 1
  42   23   24 ar
  43   23   25 1
  44   24   41 1
  45   25   42 1
  46   25   43 1
  47   25   44 1

#	End of record

