#	Name: ASD01140073
#	Creating user name:	WinNT
#	Creation time:	15. 06. 2019 18:59

#	Modifying user name:	WinNT
#	Modification time:	15. 06. 2019 18:59

#	Program:	/corina/corina34_cracker 3.40 0067  02.08.2006

@<TRIPOS>MOLECULE
ASD01140073
  68   71    0    0    0
SMALL
NO_CHARGES


@<TRIPOS>ATOM
   1 C1             0.5289     1.3591     0.7227 C.3     
   2 C2             0.6604    -0.1494     0.5143 C.3     
   3 C3             1.3912    -0.7835     1.7003 C.3     
   4 C4             2.7715    -0.1426     1.8472 C.3     
   5 C5             2.6339     1.3587     2.0872 C.3     
   6 C6             1.9083     1.9946     0.9023 C.3     
   7 C7             3.5502    -0.8133     2.9758 C.3     
   8 C8             4.9418    -0.1792     3.0987 C.3     
   9 C9             5.0839     0.8992     2.0253 C.3     
  10 C10            4.0282     1.9793     2.2551 C.3     
  11 C11            6.4595     1.4725     1.9385 C.3     
  12 C12            6.5305     2.9650     2.3258 C.3     
  13 C13            5.6393     3.7702     1.4159 C.3     
  14 C14            4.2286     3.1706     1.3365 C.3     
  15 C15            7.5695     0.8837     2.8210 C.3     
  16 C16            8.7254     1.8914     2.5385 C.3     
  17 C17            8.0435     3.2284     2.1523 C.3     
  18 C18           -0.7369    -0.7665     0.3964 C.3     
  19 C19            1.8458     1.6297     3.3725 C.3     
  20 C20            6.2191     3.2294     3.7970 C.3     
  21 C21            8.4747     4.3282     3.0833 C.2     
  22 C22            8.4215     5.7641     2.6290 C.3     
  23 O23            8.8634     4.0606     4.1949 O.2     
  24 H24            3.3115    -0.3028     0.9047 H       
  25 O25            1.3890    -0.4051    -0.6886 O.3     
  26 N26           -0.6212    -2.2286     0.3137 N.3     
  27 C27           -1.9057    -2.8761     0.6114 C.3     
  28 C28           -0.1150    -2.6431    -1.0016 C.3     
  29 H29            0.0533     1.7960    -0.1633 H       
  30 H30           -0.1035     1.5617     1.5828 H       
  31 H31            0.8077    -0.6639     2.6069 H       
  32 H32            1.5180    -1.8539     1.5045 H       
  33 H33            2.4927     1.8442    -0.0067 H       
  34 H34            1.7881     3.0647     1.0801 H       
  35 H35            3.0181    -0.7230     3.9188 H       
  36 H36            3.6688    -1.8770     2.7427 H       
  37 H37            5.0528     0.2669     4.0860 H       
  38 H38            5.7037    -0.9445     2.9522 H       
  39 H39            4.8688     0.4198     1.0502 H       
  40 H40            4.0553     2.3067     3.2989 H       
  41 H41            6.8038     1.3781     0.8824 H       
  42 H42            5.5749     4.8036     1.7828 H       
  43 H43            6.0773     3.8038     0.4086 H       
  44 H44            4.0368     2.8658     0.2989 H       
  45 H45            3.4980     3.9501     1.5901 H       
  46 H46            7.3048     0.8634     3.8679 H       
  47 H47            7.8488    -0.1115     2.4697 H       
  48 H48            9.3289     2.0225     3.4342 H       
  49 H49            9.3368     1.5301     1.7142 H       
  50 H50            8.2530     3.4841     1.1191 H       
  51 H51           -1.3279    -0.4978     1.2719 H       
  52 H52           -1.2260    -0.3894    -0.5018 H       
  53 H53            2.3671     1.1833     4.2193 H       
  54 H54            1.7589     2.7054     3.5254 H       
  55 H55            0.8506     1.1932     3.2874 H       
  56 H56            6.8797     2.6284     4.4219 H       
  57 H57            6.3728     4.2859     4.0168 H       
  58 H58            5.1824     2.9625     4.0026 H       
  59 H59            7.3955     6.0256     2.3700 H       
  60 H60            8.7698     6.4127     3.4329 H       
  61 H61            9.0608     5.8928     1.7556 H       
  62 H62            0.9417    -0.1034    -1.4911 H       
  63 H63           -2.6743    -2.4809    -0.0528 H       
  64 H64           -1.8138    -3.9518     0.4613 H       
  65 H65           -2.1822    -2.6760     1.6466 H       
  66 H66            0.9239    -2.3304    -1.1062 H       
  67 H67           -0.1787    -3.7276    -1.0901 H       
  68 H68           -0.7148    -2.1788    -1.7845 H       
@<TRIPOS>BOND
   1    1    2 1
   2    1    6 1
   3    1   29 1
   4    1   30 1
   5    2    3 1
   6    2   25 1
   7    2   18 1
   8    3    4 1
   9    3   31 1
  10    3   32 1
  11    4    5 1
  12    4    7 1
  13    4   24 1
  14    5    6 1
  15    5   19 1
  16    5   10 1
  17    6   33 1
  18    6   34 1
  19    7    8 1
  20    7   35 1
  21    7   36 1
  22    8    9 1
  23    8   37 1
  24    8   38 1
  25    9   10 1
  26    9   11 1
  27    9   39 1
  28   10   14 1
  29   10   40 1
  30   11   12 1
  31   11   15 1
  32   11   41 1
  33   12   13 1
  34   12   20 1
  35   12   17 1
  36   13   14 1
  37   13   42 1
  38   13   43 1
  39   14   44 1
  40   14   45 1
  41   15   16 1
  42   15   46 1
  43   15   47 1
  44   16   17 1
  45   16   48 1
  46   16   49 1
  47   17   21 1
  48   17   50 1
  49   18   26 1
  50   18   51 1
  51   18   52 1
  52   19   53 1
  53   19   54 1
  54   19   55 1
  55   20   56 1
  56   20   57 1
  57   20   58 1
  58   21   22 1
  59   21   23 2
  60   22   59 1
  61   22   60 1
  62   22   61 1
  63   25   62 1
  64   26   27 1
  65   26   28 1
  66   27   63 1
  67   27   64 1
  68   27   65 1
  69   28   66 1
  70   28   67 1
  71   28   68 1

#	End of record

