#	Name: ASD04220060
#	Creating user name:	WinNT
#	Creation time:	15. 06. 2019 20:48

#	Modifying user name:	WinNT
#	Modification time:	15. 06. 2019 20:48

#	Program:	/corina/corina34_cracker 3.40 0067  02.08.2006

@<TRIPOS>MOLECULE
ASD04220060
  37   37    0    0    0
SMALL
NO_CHARGES


@<TRIPOS>ATOM
   1 C1            -0.0173     1.4248     0.0099 C.3     
   2 O2             0.0021    -0.0041     0.0020 O.3     
   3 C3             1.4189     1.9549    -0.0010 C.3     
   4 O4             2.1280     1.4359     1.1258 O.3     
   5 S5             2.1370     2.3635     2.3325 S.o2    
   6 C6             2.1106     1.5065    -1.2920 C.3     
   7 O7             2.1863     0.0799    -1.3231 O.3     
   8 C8             1.2986     2.0029    -2.4923 C.3     
   9 C9            -0.1329     1.4709    -2.3852 C.3     
  10 O10           -0.7073     1.8984    -1.1485 O.3     
  11 C11           -0.9665     2.0114    -3.5487 C.3     
  12 O12           -2.2687     1.4240    -3.5151 O.3     
  13 S13           -3.1884     1.8926    -4.6336 S.o2    
  14 C14            3.3160    -0.4268    -2.0366 C.3     
  15 C15           -1.2893    -0.6035     0.1249 C.3     
  16 O16           -4.4782     1.3762    -4.3354 O.2     
  17 O17           -2.9282     3.2780    -4.8131 O.2     
  18 O18           -2.7332     1.2008    -5.9107 O.3     
  19 O19            3.0384     1.7924     3.2709 O.2     
  20 O20            2.2775     3.6827     1.8234 O.2     
  21 O21            0.7549     2.2921     2.9659 O.3     
  22 H22           -0.5278     1.7765     0.9064 H       
  23 H23            1.4056     3.0438     0.0470 H       
  24 H24            3.1159     1.9259    -1.3317 H       
  25 H25            1.2829     3.0928    -2.4958 H       
  26 H26            1.7535     1.6413    -3.4144 H       
  27 H27           -0.1196     0.3816    -2.4225 H       
  28 H28           -1.0540     3.0943    -3.4607 H       
  29 H29           -0.4795     1.7617    -4.4914 H       
  30 H30            4.2324    -0.0663    -1.5694 H       
  31 H31            3.3011    -1.5165    -2.0141 H       
  32 H32            3.2762    -0.0842    -3.0706 H       
  33 H33           -1.7459    -0.2932     1.0647 H       
  34 H34           -1.9180    -0.2858    -0.7069 H       
  35 H35           -1.1889    -1.6888     0.1106 H       
  36 H36           -3.2563     1.4313    -6.6907 H       
  37 H37            0.6518     2.8502     3.7489 H       
@<TRIPOS>BOND
   1    1    2 1
   2    1    3 1
   3    1   10 1
   4    1   22 1
   5    2   15 1
   6    3    4 1
   7    3    6 1
   8    3   23 1
   9    4    5 1
  10    5   19 2
  11    5   20 2
  12    5   21 1
  13    6    7 1
  14    6    8 1
  15    6   24 1
  16    7   14 1
  17    8    9 1
  18    8   25 1
  19    8   26 1
  20    9   10 1
  21    9   11 1
  22    9   27 1
  23   11   12 1
  24   11   28 1
  25   11   29 1
  26   12   13 1
  27   13   16 2
  28   13   17 2
  29   13   18 1
  30   14   30 1
  31   14   31 1
  32   14   32 1
  33   15   33 1
  34   15   34 1
  35   15   35 1
  36   18   36 1
  37   21   37 1

#	End of record

