#	Name: ASD05143062
#	Creating user name:	WinNT
#	Creation time:	15. 06. 2019 20:57

#	Modifying user name:	WinNT
#	Modification time:	15. 06. 2019 20:57

#	Program:	/corina/corina34_cracker 3.40 0067  02.08.2006

@<TRIPOS>MOLECULE
ASD05143062
 148  152    0    0    0
SMALL
NO_CHARGES


@<TRIPOS>ATOM
   1 C1            -2.4673     5.0219    -3.2058 C.2     
   2 C2            -2.8729     3.6247    -2.8129 C.3     
   3 N3            -1.3107     5.5415    -2.7489 N.am    
   4 O4            -3.1792     5.6769    -3.9373 O.2     
   5 C5            -0.9164     6.8998    -3.1308 C.3     
   6 C6            -1.9802     7.8920    -2.6568 C.3     
   7 C7            -0.7853     6.9819    -4.6299 C.2     
   8 C8            -2.0259     7.8987    -1.1275 C.3     
   9 C9            -3.0897     8.8909    -0.6534 C.3     
  10 N10           -3.1334     8.8974     0.8110 N.pl3   
  11 C11           -4.0194     9.7176     1.4686 C.2     
  12 N12           -4.0604     9.7237     2.8428 N.pl3   
  13 N13           -4.8205    10.4894     0.7893 N.2     
  14 O14           -1.3300     6.1568    -5.3324 O.2     
  15 N15           -0.0629     7.9724    -5.1899 N.am    
  16 C16            0.0645     8.0523    -6.6471 C.3     
  17 C17            0.3538     9.4981    -7.0552 C.3     
  18 C18           -0.6796    10.4257    -6.4132 C.3     
  19 C19            0.0179    11.6844    -5.8939 C.3     
  20 N20            1.2128    11.3018    -5.1297 N.3     
  21 C21            1.7757    12.4571    -4.4182 C.3     
  22 C22            3.2857    12.2699    -4.2574 C.3     
  23 C23            3.7938    13.1668    -3.1269 C.3     
  24 C24            5.2710    13.4910    -3.3589 C.3     
  25 N25            6.0961    12.5119    -2.6237 N.am    
  26 C26            5.5680    14.8802    -2.8559 C.2     
  27 N27            5.2505    15.9518    -3.6091 N.am    
  28 O28            6.0926    15.0339    -1.7733 O.2     
  29 C29            6.8852    11.6942    -3.3738 C.2     
  30 O30            6.8865    11.7799    -4.5836 O.2     
  31 C31            7.7572    10.6813    -2.6776 C.3     
  32 N32            8.2145     9.6840    -3.6717 N.am    
  33 C33            8.9685    11.3843    -2.0615 C.3     
  34 C34            7.7608     8.4107    -3.4726 C.2     
  35 O35            7.0290     8.1550    -2.5398 O.2     
  36 C36            8.1854     7.3301    -4.4330 C.3     
  37 N37            7.2820     6.1723    -4.2784 N.am    
  38 C38            8.1023     7.8572    -5.8669 C.3     
  39 C39            6.5676     5.8067    -5.3777 C.2     
  40 O40            6.6869     6.4173    -6.4188 O.2     
  41 C41            5.6269     4.6331    -5.2848 C.3     
  42 C42            9.7732    10.3913    -1.2631 C.2     
  43 C43           10.8047     9.4889    -1.7803 C.ar    
  44 C44           11.2720     8.7576    -0.6733 C.ar    
  45 N45           10.5687     9.1930     0.4274 N.pl3   
  46 C46            9.6848    10.1701     0.0580 C.2     
  47 C47           11.3442     9.2564    -3.0470 C.ar    
  48 C48           12.3248     8.3182    -3.2047 C.ar    
  49 C49           12.7891     7.5935    -2.1154 C.ar    
  50 C50           12.2715     7.8074    -0.8570 C.ar    
  51 N51            4.6783     4.6970    -6.4204 N.am    
  52 C52            4.8541     4.6974    -3.9659 C.3     
  53 C53            4.1011     3.4081    -3.7615 C.ar    
  54 C54            4.7863     2.2076    -3.7094 C.ar    
  55 C55            4.0943     1.0242    -3.5213 C.ar    
  56 C56            2.7191     1.0424    -3.3855 C.ar    
  57 C57            2.0348     2.2426    -3.4376 C.ar    
  58 C58            2.7261     3.4255    -3.6203 C.ar    
  59 C59            1.1955     7.1659    -7.1019 C.2     
  60 O60            2.0757     7.6066    -7.8104 O.2     
  61 C61            8.8366     6.8982    -6.8061 C.3     
  62 C62            8.2752     7.0415    -8.2221 C.3     
  63 N63            8.9783     6.1233    -9.1214 N.pl3   
  64 C64            8.6428     6.0745   -10.4538 C.2     
  65 N65            9.3027     5.2128   -11.2978 N.pl3   
  66 N66            7.6991     6.8451   -10.9169 N.2     
  67 N67            1.2151     5.8635    -6.7055 N.am    
  68 C68            2.3497     5.0460    -7.1794 C.3     
  69 C69            3.3815     4.9641    -6.0842 C.2     
  70 O70            3.0662     5.1318    -4.9252 O.2     
  71 Cl71           6.5137     2.1855    -3.8807 Cl      
  72 C72            2.9679     5.6965    -8.4186 C.3     
  73 C73            1.8844     5.9956    -9.4224 C.2     
  74 C74            1.6263     7.1968    -9.9739 C.2     
  75 N75            0.5690     7.0225   -10.8256 N.pl3   
  76 C76            0.2177     5.7199   -10.7649 C.2     
  77 N77            1.0119     5.1110    -9.9275 N.2     
  78 H78           -2.1120     3.1952    -2.1611 H       
  79 H79           -3.8263     3.6578    -2.2857 H       
  80 H80           -2.9736     3.0104    -3.7076 H       
  81 H81           -0.7394     5.0162    -2.1671 H       
  82 H82            0.0400     7.1440    -2.6686 H       
  83 H83           -1.7323     8.8903    -3.0173 H       
  84 H84           -2.9535     7.5957    -3.0480 H       
  85 H85           -2.2738     6.9004    -0.7669 H       
  86 H86           -1.0526     8.1950    -0.7362 H       
  87 H87           -2.8418     9.8893    -1.0139 H       
  88 H88           -4.0629     8.5947    -1.0446 H       
  89 H89           -2.5372     8.3231     1.3165 H       
  90 H90           -3.4643     9.1493     3.3484 H       
  91 H91           -4.6856    10.3023     3.3068 H       
  92 H92           -5.4456    11.0680     1.2533 H       
  93 H93            0.3727     8.6323    -4.6280 H       
  94 H94           -0.8648     7.7226    -7.1117 H       
  95 H95            1.3520     9.7779    -6.7185 H       
  96 H96            0.2980     9.5876    -8.1401 H       
  97 H97           -1.4279    10.7047    -7.1550 H       
  98 H98           -1.1645     9.9107    -5.5839 H       
  99 H99            0.3106    12.3114    -6.7362 H       
 100 H100          -0.6643    12.2379    -5.2486 H       
 101 H101           1.0074    10.5485    -4.4906 H       
 102 H102           1.5808    13.3654    -4.9885 H       
 103 H103           1.3129    12.5391    -3.4348 H       
 104 H104           3.4991    11.2281    -4.0184 H       
 105 H105           3.7862    12.5391    -5.1876 H       
 106 H106           3.2171    14.0916    -3.1096 H       
 107 H107           3.6804    12.6499    -2.1740 H       
 108 H108           5.4951    13.4307    -4.4239 H       
 109 H109           6.0772    12.4544    -1.6556 H       
 110 H110           4.8309    15.8288    -4.4750 H       
 111 H111           5.4417    16.8459    -3.2854 H       
 112 H112           7.1848    10.1821    -1.8957 H       
 113 H113           8.7953     9.9182    -4.4125 H       
 114 H114           9.5891    11.8009    -2.8548 H       
 115 H115           8.6287    12.1868    -1.4067 H       
 116 H116           9.2088     7.0268    -4.2122 H       
 117 H117           7.2021     5.6966    -3.4368 H       
 118 H118           7.0570     7.9304    -6.1671 H       
 119 H119           8.5652     8.8426    -5.9192 H       
 120 H120           6.1948     3.7041    -5.3343 H       
 121 H121          10.6851     8.8595     1.3308 H       
 122 H122           9.0105    10.6819     0.7286 H       
 123 H123          10.9874     9.8159    -3.8991 H       
 124 H124          12.7418     8.1387    -4.1847 H       
 125 H125          13.5645     6.8550    -2.2560 H       
 126 H126          12.6396     7.2387    -0.0158 H       
 127 H127           4.9583     4.5592    -7.3388 H       
 128 H128           5.5528     4.8446    -3.1423 H       
 129 H129           4.1496     5.5285    -3.9976 H       
 130 H130           4.6286     0.0865    -3.4809 H       
 131 H131           2.1788     0.1188    -3.2390 H       
 132 H132           0.9601     2.2563    -3.3318 H       
 133 H133           2.1911     4.3628    -3.6606 H       
 134 H134           9.9000     7.1376    -6.8109 H       
 135 H135           8.6964     5.8737    -6.4615 H       
 136 H136           7.2118     6.8021    -8.2173 H       
 137 H137           8.4154     8.0660    -8.5667 H       
 138 H138           9.6806     5.5497    -8.7768 H       
 139 H139          10.0050     4.6392   -10.9532 H       
 140 H140           9.0660     5.1783   -12.2378 H       
 141 H141           7.4624     6.8107   -11.8569 H       
 142 H142           0.5194     5.4917    -6.1410 H       
 143 H143           1.9995     4.0439    -7.4270 H       
 144 H144           3.4644     6.6238    -8.1327 H       
 145 H145           3.6956     5.0163    -8.8612 H       
 146 H146           2.1521     8.1202    -9.7809 H       
 147 H147           0.1504     7.7067   -11.3710 H       
 148 H148          -0.5850     5.2579   -11.3205 H       
@<TRIPOS>BOND
   1    1    2 1
   2    1    3 am
   3    1    4 2
   4    2   78 1
   5    2   79 1
   6    2   80 1
   7    3    5 1
   8    3   81 1
   9    5    6 1
  10    5    7 1
  11    5   82 1
  12    6    8 1
  13    6   83 1
  14    6   84 1
  15    7   14 2
  16    7   15 am
  17    8    9 1
  18    8   85 1
  19    8   86 1
  20    9   10 1
  21    9   87 1
  22    9   88 1
  23   10   11 1
  24   10   89 1
  25   11   12 1
  26   11   13 2
  27   12   90 1
  28   12   91 1
  29   13   92 1
  30   15   16 1
  31   15   93 1
  32   16   17 1
  33   16   59 1
  34   16   94 1
  35   17   18 1
  36   17   95 1
  37   17   96 1
  38   18   19 1
  39   18   97 1
  40   18   98 1
  41   19   20 1
  42   19   99 1
  43   19  100 1
  44   20   21 1
  45   20  101 1
  46   21   22 1
  47   21  102 1
  48   21  103 1
  49   22   23 1
  50   22  104 1
  51   22  105 1
  52   23   24 1
  53   23  106 1
  54   23  107 1
  55   24   25 1
  56   24   26 1
  57   24  108 1
  58   25   29 am
  59   25  109 1
  60   26   27 am
  61   26   28 2
  62   27  110 1
  63   27  111 1
  64   29   30 2
  65   29   31 1
  66   31   32 1
  67   31   33 1
  68   31  112 1
  69   32   34 am
  70   32  113 1
  71   33   42 1
  72   33  114 1
  73   33  115 1
  74   34   35 2
  75   34   36 1
  76   36   37 1
  77   36   38 1
  78   36  116 1
  79   37   39 am
  80   37  117 1
  81   38   61 1
  82   38  118 1
  83   38  119 1
  84   39   40 2
  85   39   41 1
  86   41   51 1
  87   41   52 1
  88   41  120 1
  89   42   43 1
  90   42   46 2
  91   43   44 ar
  92   43   47 ar
  93   44   45 1
  94   44   50 ar
  95   45   46 1
  96   45  121 1
  97   46  122 1
  98   47   48 ar
  99   47  123 1
 100   48   49 ar
 101   48  124 1
 102   49   50 ar
 103   49  125 1
 104   50  126 1
 105   51   69 am
 106   51  127 1
 107   52   53 1
 108   52  128 1
 109   52  129 1
 110   53   54 ar
 111   53   58 ar
 112   54   55 ar
 113   54   71 1
 114   55   56 ar
 115   55  130 1
 116   56   57 ar
 117   56  131 1
 118   57   58 ar
 119   57  132 1
 120   58  133 1
 121   59   60 2
 122   59   67 am
 123   61   62 1
 124   61  134 1
 125   61  135 1
 126   62   63 1
 127   62  136 1
 128   62  137 1
 129   63   64 1
 130   63  138 1
 131   64   65 1
 132   64   66 2
 133   65  139 1
 134   65  140 1
 135   66  141 1
 136   67   68 1
 137   67  142 1
 138   68   69 1
 139   68   72 1
 140   68  143 1
 141   69   70 2
 142   72   73 1
 143   72  144 1
 144   72  145 1
 145   73   74 2
 146   73   77 1
 147   74   75 1
 148   74  146 1
 149   75   76 1
 150   75  147 1
 151   76   77 2
 152   76  148 1

#	End of record

