#	Name: ASD05430342
#	Creating user name:	WinNT
#	Creation time:	15. 06. 2019 21:00

#	Modifying user name:	WinNT
#	Modification time:	15. 06. 2019 21:00

#	Program:	/corina/corina34_cracker 3.40 0067  02.08.2006

@<TRIPOS>MOLECULE
ASD05430342
  57   60    0    0    0
SMALL
NO_CHARGES


@<TRIPOS>ATOM
   1 C1            -0.0411     1.4631     0.2628 C.ar    
   2 C2             0.0003     0.0830     0.0659 C.ar    
   3 C3            -1.1796    -0.6445    -0.0262 C.ar    
   4 C4            -2.3961    -0.0063     0.0770 C.ar    
   5 C5            -2.4453     1.3776     0.2750 C.ar    
   6 C6            -1.2576     2.1092     0.3730 C.ar    
   7 C7            -4.8867     1.3544     0.2959 C.2     
   8 C8            -3.7439     2.0612     0.3854 C.2     
   9 C9            -7.5486     0.1026    -0.1382 C.2     
  10 N10           -7.3875     1.3992     0.1924 N.am    
  11 C11           -6.1813     2.0359     0.4060 C.2     
  12 C12           -9.3735     1.9646     1.5109 C.ar    
  13 C13          -10.4560     2.7525     1.8551 C.ar    
  14 C14           -9.1251     0.7910     2.1981 C.ar    
  15 C15           -9.9592     0.4039     3.2297 C.ar    
  16 C16          -11.0437     1.1922     3.5754 C.ar    
  17 C17          -11.2912     2.3677     2.8867 C.ar    
  18 F18          -11.8601     0.8146     4.5834 F       
  19 O19            1.1156     2.1720     0.3520 O.3     
  20 C20            0.9986     3.5818     0.5540 C.3     
  21 C21            1.6261    -1.6893     0.6502 C.2     
  22 N22            1.2346    -0.5711    -0.0397 N.pl3   
  23 C23            2.8773    -1.9791     0.2456 C.2     
  24 N24            3.2447    -1.0664    -0.6661 N.2     
  25 C25            2.2694    -0.2177    -0.8457 C.2     
  26 C26            3.7195    -3.1297     0.7331 C.3     
  27 C27           -8.4671     2.3822     0.3818 C.3     
  28 C28           -7.7124     3.6769     0.7415 C.3     
  29 N29           -6.2958     3.2895     0.7128 N.2     
  30 C30           -9.2636     2.5641    -0.9118 C.3     
  31 O31           -6.5786    -0.6021    -0.3191 O.2     
  32 C32           -8.9345    -0.4715    -0.2830 C.3     
  33 H33           -1.1430    -1.7129    -0.1794 H       
  34 H34           -3.3118    -0.5744     0.0047 H       
  35 H35           -1.2911     3.1778     0.5258 H       
  36 H36           -4.8502     0.2859     0.1430 H       
  37 H37           -3.7804     3.1297     0.5383 H       
  38 H38          -10.6489     3.6693     1.3179 H       
  39 H39           -8.2792     0.1762     1.9283 H       
  40 H40           -9.7654    -0.5134     3.7659 H       
  41 H41          -12.1367     2.9835     3.1557 H       
  42 H42            1.9930     4.0251     0.6070 H       
  43 H43            0.4478     4.0233    -0.2766 H       
  44 H44            0.4657     3.7725     1.4855 H       
  45 H45            1.0444    -2.2310     1.3814 H       
  46 H46            2.2830     0.6245    -1.5217 H       
  47 H47            3.5432    -4.0016     0.1032 H       
  48 H48            4.7732    -2.8545     0.6858 H       
  49 H49            3.4515    -3.3654     1.7630 H       
  50 H50           -7.9084     4.4511    -0.0002 H       
  51 H51           -7.9965     4.0199     1.7364 H       
  52 H52           -9.7022     1.6105    -1.2056 H       
  53 H53          -10.0565     3.2945    -0.7506 H       
  54 H54           -8.5995     2.9170    -1.7008 H       
  55 H55           -9.2303    -0.4466    -1.3318 H       
  56 H56           -8.9397    -1.5021     0.0717 H       
  57 H57           -9.6358     0.1192     0.3064 H       
@<TRIPOS>BOND
   1    1    2 ar
   2    1   19 1
   3    1    6 ar
   4    2    3 ar
   5    2   22 1
   6    3    4 ar
   7    3   33 1
   8    4    5 ar
   9    4   34 1
  10    5    6 ar
  11    5    8 1
  12    6   35 1
  13    7    8 2
  14    7   11 1
  15    7   36 1
  16    8   37 1
  17    9   10 am
  18    9   31 2
  19    9   32 1
  20   10   11 1
  21   10   27 1
  22   11   29 2
  23   12   13 ar
  24   12   14 ar
  25   12   27 1
  26   13   17 ar
  27   13   38 1
  28   14   15 ar
  29   14   39 1
  30   15   16 ar
  31   15   40 1
  32   16   17 ar
  33   16   18 1
  34   17   41 1
  35   19   20 1
  36   20   42 1
  37   20   43 1
  38   20   44 1
  39   21   22 1
  40   21   23 2
  41   21   45 1
  42   22   25 1
  43   23   24 1
  44   23   26 1
  45   24   25 2
  46   25   46 1
  47   26   47 1
  48   26   48 1
  49   26   49 1
  50   27   28 1
  51   27   30 1
  52   28   29 1
  53   28   50 1
  54   28   51 1
  55   30   52 1
  56   30   53 1
  57   30   54 1
  58   32   55 1
  59   32   56 1
  60   32   57 1

#	End of record

