#	Name: ASD08170185
#	Creating user name:	WinNT
#	Creation time:	15. 06. 2019 21:17

#	Modifying user name:	WinNT
#	Modification time:	15. 06. 2019 21:17

#	Program:	/corina/corina34_cracker 3.40 0067  02.08.2006

@<TRIPOS>MOLECULE
ASD08170185
  91   92    0    0    0
SMALL
NO_CHARGES


@<TRIPOS>ATOM
   1 N1            -0.5326     0.0701     0.4057 N.2     
   2 N2            -0.3292    -1.1738     0.3330 N.2     
   3 C3             0.5057     0.8490     0.4560 C.2     
   4 S4             1.9196    -0.1168     0.4047 S.3     
   5 C5             0.9074    -1.5587     0.3153 C.2     
   6 C6             1.3940    -2.9826     0.2331 C.3     
   7 C7             1.5646    -3.3794    -1.2347 C.3     
   8 S8             2.1503    -5.0934    -1.3336 S.3     
   9 C9             2.2893    -5.3746    -3.1203 C.3     
  10 C10            2.7808    -6.8009    -3.3754 C.3     
  11 C11            2.8963    -7.0345    -4.8597 C.2     
  12 N12            3.9449    -6.8165    -5.5880 N.2     
  13 S13            1.6301    -7.6612    -5.9158 S.3     
  14 C14            2.7046    -7.5387    -7.2444 C.2     
  15 N15            3.8417    -7.0770    -6.8190 N.2     
  16 N16            2.4098    -7.8814    -8.5597 N.am    
  17 C17            3.3454    -7.7384    -9.5192 C.2     
  18 O18            4.4135    -7.2288    -9.2536 O.2     
  19 C19            3.0644    -8.2117   -10.9221 C.3     
  20 N20            0.4746     2.2370     0.5375 N.am    
  21 C21           -0.7074     2.8838     0.5709 C.2     
  22 O22           -1.7426     2.2534     0.6142 O.2     
  23 C23           -0.7427     4.3903     0.5545 C.3     
  24 C24           -0.7107     4.8854    -0.8928 C.3     
  25 C25            0.6263     4.5057    -1.5323 C.3     
  26 C26           -1.8536     4.2391    -1.6782 C.3     
  27 C27            2.2927    -7.1298   -11.6803 C.3     
  28 C28            0.9126    -6.9479   -11.0453 C.3     
  29 C29            3.0638    -5.8101   -11.6113 C.3     
  30 N30            4.3299    -8.4812   -11.6092 N.am    
  31 C31            4.3672    -9.3552   -12.6345 C.2     
  32 O32            5.5302    -9.6029   -13.2659 O.3     
  33 O33            3.3512    -9.9197   -12.9889 O.2     
  34 C34            5.4958   -10.5555   -14.3612 C.3     
  35 C35            4.5388   -10.0532   -15.4442 C.3     
  36 C36            6.8996   -10.7057   -14.9508 C.3     
  37 C37            5.0126   -11.9115   -13.8427 C.3     
  38 N38           -1.9704     4.8571     1.2034 N.am    
  39 C39           -2.0145     6.0844     1.7584 C.2     
  40 O40           -3.1428     6.5135     2.3547 O.3     
  41 O41           -1.0360     6.8038     1.7206 O.2     
  42 C42           -3.1181     7.8459     2.9311 C.3     
  43 C43           -2.8174     8.8702     1.8350 C.3     
  44 C44           -4.4787     8.1553     3.5588 C.3     
  45 C45           -2.0323     7.9164     4.0067 C.3     
  46 H46            2.3515    -3.0696     0.7466 H       
  47 H47            0.6669    -3.6429     0.7058 H       
  48 H48            0.6070    -3.2924    -1.7482 H       
  49 H49            2.2917    -2.7191    -1.7074 H       
  50 H50            1.3136    -5.2377    -3.5867 H       
  51 H51            2.9982    -4.6644    -3.5458 H       
  52 H52            3.7565    -6.9378    -2.9090 H       
  53 H53            2.0719    -7.5111    -2.9498 H       
  54 H54            1.5308    -8.2232    -8.7864 H       
  55 H55            2.4694    -9.1242   -10.8853 H       
  56 H56            1.3036     2.7396     0.5703 H       
  57 H57            0.1225     4.7798     1.0910 H       
  58 H58           -0.8263     5.9692    -0.9086 H       
  59 H59            0.6899     4.9437    -2.5285 H       
  60 H60            1.4434     4.8823    -0.9170 H       
  61 H61            0.6981     3.4206    -1.6072 H       
  62 H62           -2.8062     4.5096    -1.2226 H       
  63 H63           -1.8309     4.5918    -2.7093 H       
  64 H64           -1.7381     3.1553    -1.6624 H       
  65 H65            2.1767    -7.4288   -12.7221 H       
  66 H66            0.3162    -6.2731   -11.6594 H       
  67 H67            0.4134    -7.9146   -10.9779 H       
  68 H68            1.0250    -6.5265   -10.0464 H       
  69 H69            4.0469    -5.9397   -12.0637 H       
  70 H70            2.5140    -5.0394   -12.1515 H       
  71 H71            3.1797    -5.5111   -10.5696 H       
  72 H72            5.1409    -8.0306   -11.3263 H       
  73 H73            4.8830    -9.0872   -15.8135 H       
  74 H74            4.5130   -10.7683   -16.2663 H       
  75 H75            3.5387    -9.9462   -15.0241 H       
  76 H76            7.5813   -11.0636   -14.1793 H       
  77 H77            6.8737   -11.4209   -15.7730 H       
  78 H78            7.2438    -9.7397   -15.3202 H       
  79 H79            4.0125   -11.8045   -13.4227 H       
  80 H80            4.9867   -12.6266   -14.6649 H       
  81 H81            5.6943   -12.2694   -13.0712 H       
  82 H82           -2.7515     4.2828     1.2336 H       
  83 H83           -3.5910     8.8200     1.0687 H       
  84 H84           -2.7989     9.8705     2.2676 H       
  85 H85           -1.8482     8.6498     1.3878 H       
  86 H86           -4.6929     7.4256     4.3397 H       
  87 H87           -4.4602     9.1556     3.9915 H       
  88 H88           -5.2523     8.1052     2.7925 H       
  89 H89           -1.0630     7.6960     3.5595 H       
  90 H90           -2.0138     8.9167     4.4393 H       
  91 H91           -2.2466     7.1867     4.7876 H       
@<TRIPOS>BOND
   1    1    2 1
   2    1    3 2
   3    2    5 2
   4    3    4 1
   5    3   20 1
   6    4    5 1
   7    5    6 1
   8    6    7 1
   9    6   46 1
  10    6   47 1
  11    7    8 1
  12    7   48 1
  13    7   49 1
  14    8    9 1
  15    9   10 1
  16    9   50 1
  17    9   51 1
  18   10   11 1
  19   10   52 1
  20   10   53 1
  21   11   12 2
  22   11   13 1
  23   12   15 1
  24   13   14 1
  25   14   15 2
  26   14   16 1
  27   16   17 am
  28   16   54 1
  29   17   18 2
  30   17   19 1
  31   19   27 1
  32   19   30 1
  33   19   55 1
  34   20   21 am
  35   20   56 1
  36   21   22 2
  37   21   23 1
  38   23   24 1
  39   23   38 1
  40   23   57 1
  41   24   25 1
  42   24   26 1
  43   24   58 1
  44   25   59 1
  45   25   60 1
  46   25   61 1
  47   26   62 1
  48   26   63 1
  49   26   64 1
  50   27   28 1
  51   27   29 1
  52   27   65 1
  53   28   66 1
  54   28   67 1
  55   28   68 1
  56   29   69 1
  57   29   70 1
  58   29   71 1
  59   30   31 am
  60   30   72 1
  61   31   32 1
  62   31   33 2
  63   32   34 1
  64   34   35 1
  65   34   36 1
  66   34   37 1
  67   35   73 1
  68   35   74 1
  69   35   75 1
  70   36   76 1
  71   36   77 1
  72   36   78 1
  73   37   79 1
  74   37   80 1
  75   37   81 1
  76   38   39 am
  77   38   82 1
  78   39   40 1
  79   39   41 2
  80   40   42 1
  81   42   43 1
  82   42   44 1
  83   42   45 1
  84   43   83 1
  85   43   84 1
  86   43   85 1
  87   44   86 1
  88   44   87 1
  89   44   88 1
  90   45   89 1
  91   45   90 1
  92   45   91 1

#	End of record

