#	Name: ASD01914174
#	Creating user name:	WinNT
#	Creation time:	15. 06. 2019 20:03

#	Modifying user name:	WinNT
#	Modification time:	15. 06. 2019 20:03

#	Program:	/corina/corina34_cracker 3.40 0067  02.08.2006

@<TRIPOS>MOLECULE
ASD01914174
  43   46    0    0    0
SMALL
NO_CHARGES


@<TRIPOS>ATOM
   1 C1             0.3984    -0.5026     0.7893 C.2     
   2 N2             0.0409    -1.7276     0.3369 N.2     
   3 C3            -1.2579    -1.6789     0.1790 C.2     
   4 O4            -1.6530    -0.4513     0.5314 O.3     
   5 N5            -0.6980     0.2088     0.8826 N.2     
   6 C6            -2.1420    -2.7972    -0.3095 C.3     
   7 C7            -3.1763    -3.1376     0.7659 C.3     
   8 C8            -4.0093    -1.8944     1.0865 C.3     
   9 C9            -4.7533    -1.4439    -0.1745 C.3     
  10 N10           -3.7778    -1.2540    -1.2567 N.am    
  11 C11           -2.8649    -2.3570    -1.5864 C.3     
  12 C12           -3.7215    -0.0902    -1.9340 C.2     
  13 C13           -2.6422     0.1454    -2.8988 C.2     
  14 O14           -4.5662     0.7653    -1.7451 O.2     
  15 C15           -5.4773    -0.1245     0.1008 C.3     
  16 C16            1.7668    -0.0543     1.1214 C.2     
  17 C17            2.1179     1.1817     1.5766 C.2     
  18 C18            3.5090     1.1790     1.7629 C.2     
  19 C19            3.9670    -0.0462     1.4202 C.2     
  20 N20            2.9083    -0.8102     1.0319 N.pl3   
  21 Cl21           4.4689     2.5094     2.3306 Cl      
  22 C22           -2.6873     1.0012    -3.9790 C.2     
  23 C23           -1.4490     0.9147    -4.6242 C.2     
  24 C24           -0.6861     0.0269    -3.9415 C.2     
  25 N25           -1.3981    -0.4432    -2.8871 N.pl3   
  26 Cl26          -0.9744     1.7889    -6.0469 Cl      
  27 H27           -1.5334    -3.6766    -0.5202 H       
  28 H28           -3.8311    -3.9295     0.4023 H       
  29 H29           -2.6652    -3.4747     1.6676 H       
  30 H30           -4.7301    -2.1314     1.8691 H       
  31 H31           -3.3523    -1.0940     1.4267 H       
  32 H32           -5.4765    -2.2064    -0.4641 H       
  33 H33           -2.1346    -2.0194    -2.3218 H       
  34 H34           -3.4340    -3.1939    -1.9911 H       
  35 H35           -4.7439     0.6626     0.2763 H       
  36 H36           -6.0934     0.1382    -0.7591 H       
  37 H37           -6.1102    -0.2342     0.9814 H       
  38 H38            1.4493     2.0099     1.7596 H       
  39 H39            4.9979    -0.3665     1.4533 H       
  40 H40            2.9546    -1.7325     0.7352 H       
  41 H41           -3.5215     1.6215    -4.2719 H       
  42 H42            0.3252    -0.2567    -4.1932 H       
  43 H43           -1.0849    -1.0912    -2.2368 H       
@<TRIPOS>BOND
   1    1    2 1
   2    1   16 1
   3    1    5 2
   4    2    3 2
   5    3    4 1
   6    3    6 1
   7    4    5 1
   8    6    7 1
   9    6   11 1
  10    6   27 1
  11    7    8 1
  12    7   28 1
  13    7   29 1
  14    8    9 1
  15    8   30 1
  16    8   31 1
  17    9   10 1
  18    9   15 1
  19    9   32 1
  20   10   11 1
  21   10   12 am
  22   11   33 1
  23   11   34 1
  24   12   13 1
  25   12   14 2
  26   13   22 2
  27   13   25 1
  28   15   35 1
  29   15   36 1
  30   15   37 1
  31   16   17 2
  32   16   20 1
  33   17   18 1
  34   17   38 1
  35   18   19 2
  36   18   21 1
  37   19   20 1
  38   19   39 1
  39   20   40 1
  40   22   23 1
  41   22   41 1
  42   23   24 2
  43   23   26 1
  44   24   25 1
  45   24   42 1
  46   25   43 1

#	End of record

