#	Name: ASD03240592
#	Creating user name:	WinNT
#	Creation time:	15. 06. 2019 20:35

#	Modifying user name:	WinNT
#	Modification time:	15. 06. 2019 20:35

#	Program:	/corina/corina34_cracker 3.40 0067  02.08.2006

@<TRIPOS>MOLECULE
ASD03240592
  61   67    0    0    0
SMALL
NO_CHARGES


@<TRIPOS>ATOM
   1 C1            -0.0307     1.4914    -0.4829 C.ar    
   2 C2            -0.0623     0.1213    -0.3236 C.ar    
   3 N3             1.0430    -0.5619    -0.0942 N.ar    
   4 C4             2.2268     0.0295    -0.0058 C.ar    
   5 C5             2.3346     1.4090    -0.1708 C.ar    
   6 C6             1.1870     2.1548    -0.4069 C.ar    
   7 N7             3.3509    -0.7427     0.2735 N.pl3   
   8 C8             4.0771    -0.5419     1.4442 C.ar    
   9 C9             4.7108     0.6814     1.6870 C.ar    
  10 C10            4.6397     1.7676     0.6849 C.2     
  11 N11            3.5767     2.0574    -0.1212 N.pl3   
  12 C12            4.1733    -1.5614     2.3820 C.ar    
  13 C13            4.8822    -1.3613     3.5511 C.ar    
  14 C14            5.4995    -0.1472     3.7979 C.ar    
  15 C15            5.4183     0.8744     2.8732 C.ar    
  16 N16            5.6138     2.6177     0.4310 N.2     
  17 C17            5.2312     3.4705    -0.5339 C.2     
  18 C18            3.9383     3.1346    -0.9045 C.2     
  19 C19            3.1129     3.7970    -1.9321 C.ar    
  20 C20            2.9001     5.1770    -1.8794 C.ar    
  21 C21            2.5447     3.0484    -2.9661 C.ar    
  22 C22            1.7745     3.6746    -3.9236 C.ar    
  23 C23            1.5638     5.0409    -3.8620 C.ar    
  24 C24            2.1277     5.7896    -2.8438 C.ar    
  25 C25            6.0407     4.5670    -1.0973 C.2     
  26 C26            0.7214     5.7178    -4.9123 C.3     
  27 N27           -0.1657     4.7852    -5.6203 N.3     
  28 C28            0.0085     6.9838    -4.4085 C.3     
  29 C29            0.3427     7.6183    -5.7689 C.3     
  30 C30            1.5248     6.6352    -5.8493 C.3     
  31 C31            6.2974     4.7266    -2.3866 C.2     
  32 C32            7.1546     5.9499    -2.6154 C.3     
  33 C33            7.7418     6.2871    -1.2258 C.3     
  34 C34            6.6846     5.6646    -0.2824 C.3     
  35 H35           -0.9416     2.0410    -0.6690 H       
  36 H36           -1.0061    -0.3998    -0.3873 H       
  37 H37            1.2405     3.2265    -0.5293 H       
  38 H38            3.6308    -1.4276    -0.3537 H       
  39 H39            3.6934    -2.5112     2.1977 H       
  40 H40            4.9548    -2.1574     4.2773 H       
  41 H41            6.0466     0.0013     4.7171 H       
  42 H42            5.9009     1.8207     3.0680 H       
  43 H43            3.3393     5.7625    -1.0851 H       
  44 H44            2.7086     1.9820    -3.0156 H       
  45 H45            1.3351     3.0973    -4.7236 H       
  46 H46            1.9590     6.8555    -2.8020 H       
  47 H47            0.3462     3.9825    -5.9546 H       
  48 H48           -0.9367     4.5037    -5.0336 H       
  49 H49           -1.0598     6.8461    -4.2416 H       
  50 H50            0.5110     7.4627    -3.5681 H       
  51 H51           -0.4188     7.4465    -6.5296 H       
  52 H52            0.6462     8.6629    -5.7007 H       
  53 H53            2.4424     7.0184    -5.4029 H       
  54 H54            1.6790     6.2183    -6.8445 H       
  55 H55            5.9423     4.0715    -3.1683 H       
  56 H56            7.9545     5.7259    -3.3211 H       
  57 H57            6.5457     6.7768    -2.9808 H       
  58 H58            8.7165     5.8188    -1.0897 H       
  59 H59            7.8047     7.3655    -1.0798 H       
  60 H60            5.9469     6.4130     0.0072 H       
  61 H61            7.1653     5.2431     0.6005 H       
@<TRIPOS>BOND
   1    1    2 ar
   2    1    6 ar
   3    1   35 1
   4    2    3 ar
   5    2   36 1
   6    3    4 ar
   7    4    5 ar
   8    4    7 1
   9    5    6 ar
  10    5   11 1
  11    6   37 1
  12    7    8 1
  13    7   38 1
  14    8    9 ar
  15    8   12 ar
  16    9   10 1
  17    9   15 ar
  18   10   11 1
  19   10   16 2
  20   11   18 1
  21   12   13 ar
  22   12   39 1
  23   13   14 ar
  24   13   40 1
  25   14   15 ar
  26   14   41 1
  27   15   42 1
  28   16   17 1
  29   17   18 2
  30   17   25 1
  31   18   19 1
  32   19   20 ar
  33   19   21 ar
  34   20   24 ar
  35   20   43 1
  36   21   22 ar
  37   21   44 1
  38   22   23 ar
  39   22   45 1
  40   23   24 ar
  41   23   26 1
  42   24   46 1
  43   25   31 2
  44   25   34 1
  45   26   27 1
  46   26   28 1
  47   26   30 1
  48   27   47 1
  49   27   48 1
  50   28   29 1
  51   28   49 1
  52   28   50 1
  53   29   30 1
  54   29   51 1
  55   29   52 1
  56   30   53 1
  57   30   54 1
  58   31   32 1
  59   31   55 1
  60   32   33 1
  61   32   56 1
  62   32   57 1
  63   33   34 1
  64   33   58 1
  65   33   59 1
  66   34   60 1
  67   34   61 1

#	End of record

