#	Name: ASD07300698
#	Creating user name:	WinNT
#	Creation time:	15. 06. 2019 21:10

#	Modifying user name:	WinNT
#	Modification time:	15. 06. 2019 21:10

#	Program:	/corina/corina34_cracker 3.40 0067  02.08.2006

@<TRIPOS>MOLECULE
ASD07300698
  43   46    0    0    0
SMALL
NO_CHARGES


@<TRIPOS>ATOM
   1 C1            -0.0173     1.4131    -0.0101 C.2     
   2 C2             0.0021    -0.0041     0.0020 C.2     
   3 N3             1.1773     2.0867    -0.0173 N.pl3   
   4 N4             1.1570    -0.6391     0.0061 N.2     
   5 C5             2.3155     0.0274    -0.0010 C.2     
   6 C6             2.3478     1.3754    -0.0129 C.2     
   7 N7            -0.9993     2.3006    -0.0113 N.2     
   8 C8            -0.4899     3.5280    -0.0244 C.2     
   9 C9             0.8860     3.4242    -0.0276 C.2     
  10 N10           -1.1861    -0.7177     0.0100 N.pl3   
  11 C11           -1.1896    -2.1845    -0.1073 C.3     
  12 C12           -2.0523    -2.7578     1.0227 C.3     
  13 O13           -3.3301    -2.1170     1.0109 O.3     
  14 C14           -3.2811    -0.7091     1.2547 C.3     
  15 C15           -2.4811    -0.0313     0.1422 C.3     
  16 C16           -1.2789     4.8119    -0.0304 C.3     
  17 C17            2.9631     4.5199     0.8143 C.ar    
  18 C18            1.8548     4.5382    -0.0372 C.ar    
  19 C19            1.6755     5.6274    -0.9004 C.ar    
  20 C20            2.6088     6.6470    -0.8745 C.ar    
  21 C21            3.6923     6.5571     0.0060 C.ar    
  22 N22            3.8297     5.5084     0.8110 N.ar    
  23 C23            4.6943     7.6398     0.0418 C.2     
  24 C24            5.7254     7.5627     0.8741 C.2     
  25 F25            2.4765     7.7163    -1.6894 F       
  26 H26            3.2438    -0.5244     0.0030 H       
  27 H27            3.2954     1.8935    -0.0184 H       
  28 H28           -1.6073    -2.4747    -1.0714 H       
  29 H29           -0.1710    -2.5622    -0.0194 H       
  30 H30           -2.1813    -3.8299     0.8742 H       
  31 H31           -1.5638    -2.5784     1.9805 H       
  32 H32           -4.2942    -0.3073     1.2730 H       
  33 H33           -2.7971    -0.5223     2.2133 H       
  34 H34           -2.3172     1.0162     0.3953 H       
  35 H35           -3.0310    -0.1010    -0.7963 H       
  36 H36           -1.4627     5.1302     0.9958 H       
  37 H37           -0.7141     5.5831    -0.5543 H       
  38 H38           -2.2305     4.6512    -0.5370 H       
  39 H39            3.1066     3.6865     1.4859 H       
  40 H40            0.8290     5.6692    -1.5698 H       
  41 H41            4.5888     8.4950    -0.6093 H       
  42 H42            6.4588     8.3551     0.9003 H       
  43 H43            5.8310     6.7075     1.5252 H       
@<TRIPOS>BOND
   1    1    2 1
   2    1    3 1
   3    1    7 2
   4    2    4 2
   5    2   10 1
   6    3    6 1
   7    3    9 1
   8    4    5 1
   9    5    6 2
  10    5   26 1
  11    6   27 1
  12    7    8 1
  13    8    9 2
  14    8   16 1
  15    9   18 1
  16   10   11 1
  17   10   15 1
  18   11   12 1
  19   11   28 1
  20   11   29 1
  21   12   13 1
  22   12   30 1
  23   12   31 1
  24   13   14 1
  25   14   15 1
  26   14   32 1
  27   14   33 1
  28   15   34 1
  29   15   35 1
  30   16   36 1
  31   16   37 1
  32   16   38 1
  33   17   18 ar
  34   17   22 ar
  35   17   39 1
  36   18   19 ar
  37   19   20 ar
  38   19   40 1
  39   20   21 ar
  40   20   25 1
  41   21   22 ar
  42   21   23 1
  43   23   24 2
  44   23   41 1
  45   24   42 1
  46   24   43 1

#	End of record

