#	Name: ASD05130024
#	Creating user name:	WinNT
#	Creation time:	15. 06. 2019 20:56

#	Modifying user name:	WinNT
#	Modification time:	15. 06. 2019 20:56

#	Program:	/corina/corina34_cracker 3.40 0067  02.08.2006

@<TRIPOS>MOLECULE
ASD05130024
  60   64    0    0    0
SMALL
NO_CHARGES


@<TRIPOS>ATOM
   1 N1             0.0525     1.2404     0.0397 N.am    
   2 C2             0.0603     0.0512     0.6740 C.2     
   3 O3             1.1037    -0.4020     1.1034 O.2     
   4 N4            -1.0885    -0.6356     0.8322 N.am    
   5 C5            -1.0644    -1.9193     1.3807 C.ar    
   6 C6             0.0744    -2.6908     1.2951 C.ar    
   7 C7             0.1088    -3.9717     1.8379 C.ar    
   8 C8            -0.9782    -4.4979     2.4671 C.ar    
   9 C9            -2.1589    -3.7439     2.5762 C.ar    
  10 C10           -3.2966    -4.2614     3.2197 C.ar    
  11 C11           -4.4239    -3.5038     3.3071 C.ar    
  12 C12           -4.4690    -2.2200     2.7671 C.ar    
  13 C13           -3.3864    -1.6869     2.1366 C.ar    
  14 C14           -2.2040    -2.4364     2.0326 C.ar    
  15 C15            1.2289     1.9959    -0.0464 C.ar    
  16 C16            1.1593     3.3783    -0.1928 C.ar    
  17 C17            2.3194     4.1275    -0.2777 C.ar    
  18 C18            3.5518     3.5079    -0.2176 C.ar    
  19 C19            3.6302     2.1234    -0.0711 C.ar    
  20 C20            2.4619     1.3681     0.0198 C.ar    
  21 F21           -0.0438     3.9899    -0.2526 F       
  22 N22            7.0487     0.8743    -1.1083 N.am    
  23 C23            5.8460     1.4791    -1.1664 C.2     
  24 C24            4.9521     1.4572    -0.0065 C.2     
  25 C25            5.3458     0.8179     1.1373 C.2     
  26 C26            6.6133     0.1897     1.1735 C.ar    
  27 C27            7.0565    -0.4763     2.3229 C.ar    
  28 N28            8.2372    -1.0553     2.3397 N.ar    
  29 C29            9.0500    -1.0368     1.2887 C.ar    
  30 C30            8.6897    -0.3990     0.1101 C.ar    
  31 C31            7.4518     0.2289     0.0380 C.ar    
  32 O32            5.5014     2.0474    -2.1873 O.2     
  33 N33           10.2830    -1.6671     1.3713 N.pl3   
  34 C34           11.1902    -1.6554     0.2211 C.3     
  35 C35            7.9313     0.8981    -2.2774 C.3     
  36 C36            8.8324     2.1327    -2.2110 C.3     
  37 H37           -0.7668     1.5712    -0.3606 H       
  38 H38           -1.9320    -0.2381     0.5651 H       
  39 H39            0.9502    -2.2968     0.8008 H       
  40 H40            1.0122    -4.5581     1.7586 H       
  41 H41           -0.9329    -5.4941     2.8816 H       
  42 H42           -3.2763    -5.2551     3.6422 H       
  43 H43           -5.2965    -3.9038     3.8019 H       
  44 H44           -5.3760    -1.6396     2.8496 H       
  45 H45           -3.4356    -0.6907     1.7224 H       
  46 H46            2.2608     5.1999    -0.3916 H       
  47 H47            4.4553     4.0957    -0.2846 H       
  48 H48            2.5181     0.2961     0.1379 H       
  49 H49            4.6980     0.7933     2.0011 H       
  50 H50            6.4263    -0.5143     3.1991 H       
  51 H51            9.3598    -0.3907    -0.7368 H       
  52 H52           10.5446    -2.1155     2.1907 H       
  53 H53           12.1026    -2.1963     0.4724 H       
  54 H54           10.7055    -2.1357    -0.6289 H       
  55 H55           11.4376    -0.6255    -0.0361 H       
  56 H56            8.5472    -0.0012    -2.2860 H       
  57 H57            7.3301     0.9354    -3.1858 H       
  58 H58            9.4891     2.1504    -3.0809 H       
  59 H59            8.2166     3.0320    -2.2024 H       
  60 H60            9.4337     2.0954    -1.3026 H       
@<TRIPOS>BOND
   1    1    2 am
   2    1   15 1
   3    1   37 1
   4    2    3 2
   5    2    4 am
   6    4    5 1
   7    4   38 1
   8    5    6 ar
   9    5   14 ar
  10    6    7 ar
  11    6   39 1
  12    7    8 ar
  13    7   40 1
  14    8    9 ar
  15    8   41 1
  16    9   10 ar
  17    9   14 ar
  18   10   11 ar
  19   10   42 1
  20   11   12 ar
  21   11   43 1
  22   12   13 ar
  23   12   44 1
  24   13   14 ar
  25   13   45 1
  26   15   16 ar
  27   15   20 ar
  28   16   17 ar
  29   16   21 1
  30   17   18 ar
  31   17   46 1
  32   18   19 ar
  33   18   47 1
  34   19   20 ar
  35   19   24 1
  36   20   48 1
  37   22   23 am
  38   22   31 1
  39   22   35 1
  40   23   24 1
  41   23   32 2
  42   24   25 2
  43   25   26 1
  44   25   49 1
  45   26   27 ar
  46   26   31 ar
  47   27   28 ar
  48   27   50 1
  49   28   29 ar
  50   29   30 ar
  51   29   33 1
  52   30   31 ar
  53   30   51 1
  54   33   34 1
  55   33   52 1
  56   34   53 1
  57   34   54 1
  58   34   55 1
  59   35   36 1
  60   35   56 1
  61   35   57 1
  62   36   58 1
  63   36   59 1
  64   36   60 1

#	End of record

