#	Name: ASD00170691
#	Creating user name:	WinNT
#	Creation time:	15. 06. 2019 18:32

#	Modifying user name:	WinNT
#	Modification time:	15. 06. 2019 18:32

#	Program:	/corina/corina34_cracker 3.40 0067  02.08.2006

@<TRIPOS>MOLECULE
ASD00170691
  41   42    0    0    0
SMALL
NO_CHARGES


@<TRIPOS>ATOM
   1 C1             5.0505    -3.1471     2.9508 C.3     
   2 C2             3.7733    -3.4369     2.2053 C.ar    
   3 C3             2.5600    -3.0361     2.7359 C.ar    
   4 C4             1.3871    -3.2986     2.0587 C.ar    
   5 C5             1.4264    -3.9698     0.8355 C.ar    
   6 C6             2.6537    -4.3710     0.3056 C.ar    
   7 C7             3.8196    -4.0976     0.9905 C.ar    
   8 C8             0.1725    -4.2551     0.1042 C.2     
   9 O9            -0.9020    -3.9856     0.6097 O.2     
  10 C10            0.2235    -4.8608    -1.2261 C.2     
  11 C11            0.1385    -4.1410    -2.3955 C.2     
  12 N12           -0.0040    -2.7702    -2.4655 N.pl3   
  13 S13            0.2345    -5.1765    -3.7460 S.3     
  14 C14            0.3918    -6.6046    -2.7393 C.2     
  15 C15            0.3752    -6.2823    -1.4553 C.2     
  16 C16            0.4916    -7.2940    -0.3445 C.3     
  17 C17           -0.9018    -7.8033     0.0295 C.3     
  18 C18           -1.5173    -8.5305    -1.1676 C.3     
  19 C19           -0.7917    -8.7689     1.2112 C.3     
  20 C20           -1.7899    -6.6199     0.4190 C.3     
  21 H21            5.2760    -3.9764     3.6213 H       
  22 H22            5.8666    -3.0232     2.2390 H       
  23 H23            4.9327    -2.2322     3.5314 H       
  24 H24            2.5310    -2.5168     3.6824 H       
  25 H25            0.4406    -2.9859     2.4742 H       
  26 H26            2.6908    -4.8906    -0.6404 H       
  27 H27            4.7700    -4.4075     0.5815 H       
  28 H28           -0.1260    -2.2532    -1.6538 H       
  29 H29            0.0178    -2.3236    -3.3263 H       
  30 H30            0.4927    -7.6116    -3.1165 H       
  31 H31            1.1068    -8.1299    -0.6774 H       
  32 H32            0.9533    -6.8269     0.5254 H       
  33 H33           -0.8847    -9.3737    -1.4451 H       
  34 H34           -2.5100    -8.8934    -0.9012 H       
  35 H35           -1.5958    -7.8426    -2.0095 H       
  36 H36           -0.3532    -8.2508     2.0641 H       
  37 H37           -1.7843    -9.1318     1.4777 H       
  38 H38           -0.1590    -9.6120     0.9337 H       
  39 H39           -1.8631    -5.9288    -0.4207 H       
  40 H40           -2.7844    -6.9821     0.6793 H       
  41 H41           -1.3547    -6.1056     1.2759 H       
@<TRIPOS>BOND
   1    1    2 1
   2    1   21 1
   3    1   22 1
   4    1   23 1
   5    2    3 ar
   6    2    7 ar
   7    3    4 ar
   8    3   24 1
   9    4    5 ar
  10    4   25 1
  11    5    6 ar
  12    5    8 1
  13    6    7 ar
  14    6   26 1
  15    7   27 1
  16    8    9 2
  17    8   10 1
  18   10   11 2
  19   10   15 1
  20   11   12 1
  21   11   13 1
  22   12   28 1
  23   12   29 1
  24   13   14 1
  25   14   15 2
  26   14   30 1
  27   15   16 1
  28   16   17 1
  29   16   31 1
  30   16   32 1
  31   17   18 1
  32   17   19 1
  33   17   20 1
  34   18   33 1
  35   18   34 1
  36   18   35 1
  37   19   36 1
  38   19   37 1
  39   19   38 1
  40   20   39 1
  41   20   40 1
  42   20   41 1

#	End of record

