#	Name: ASD01670013
#	Creating user name:	WinNT
#	Creation time:	15. 06. 2019 19:22

#	Modifying user name:	WinNT
#	Modification time:	15. 06. 2019 19:22

#	Program:	/corina/corina34_cracker 3.40 0067  02.08.2006

@<TRIPOS>MOLECULE
ASD01670013
  65   68    0    0    0
SMALL
NO_CHARGES


@<TRIPOS>ATOM
   1 C1            -0.1734     0.9731    -1.2274 C.ar    
   2 C2            -0.0228    -0.3988    -1.1329 C.ar    
   3 C3             0.8924     1.8073    -0.9588 C.ar    
   4 C4             1.1958    -0.9438    -0.7685 C.ar    
   5 C5             4.7077    -5.1120     1.0040 C.ar    
   6 C6             4.5219    -6.4823     0.9337 C.ar    
   7 C7             2.1242     1.2641    -0.5911 C.ar    
   8 C8             4.2051    -4.9207    -1.3380 C.ar    
   9 C9             2.2692    -0.1212    -0.4972 C.ar    
  10 C10            4.5528    -4.3302    -0.1197 C.ar    
  11 C11            4.1789    -7.0835    -0.2674 C.ar    
  12 C12            4.0161    -6.3079    -1.4087 C.ar    
  13 C13            3.2706     2.1518    -0.3023 C.2     
  14 C14            4.0374    -4.0883    -2.5430 C.2     
  15 C15            4.3999     8.3412    -1.9059 C.3     
  16 C16            4.6624     8.1884    -0.4063 C.3     
  17 C17            3.2591     7.4101    -2.3214 C.3     
  18 C18            5.0496     6.7400    -0.1014 C.3     
  19 C19            3.6462     5.9617    -2.0164 C.3     
  20 C20            3.3040    -8.9549    -1.4454 C.3     
  21 C21            3.8630    -8.2896    -2.7096 C.3     
  22 C22            3.9088     5.8089    -0.5169 C.3     
  23 C23            2.7769    -2.5021     1.3156 C.3     
  24 C24            3.5955    -0.7164    -0.1000 C.3     
  25 C25            4.7577    -2.8396    -0.0353 C.3     
  26 C26            4.2959     4.3604    -0.2119 C.3     
  27 N27            3.1599     3.4807    -0.4981 N.am    
  28 N28            3.4530    -2.1703     0.0544 N.3     
  29 O29            4.9874    -3.8720    -3.2691 O.2     
  30 O30            4.3130     1.6833     0.1116 O.2     
  31 O31            2.8306    -3.5672    -2.8394 O.3     
  32 O32            4.0096    -8.4336    -0.3140 O.3     
  33 O33            3.6727    -6.8752    -2.5938 O.3     
  34 H34           -1.1260     1.3920    -1.5163 H       
  35 H35           -0.8602    -1.0473    -1.3443 H       
  36 H36            0.7737     2.8781    -1.0332 H       
  37 H37            1.3065    -2.0157    -0.6959 H       
  38 H38            4.9711    -4.6532     1.9456 H       
  39 H39            4.6452    -7.0867     1.8203 H       
  40 H40            4.1240     9.3731    -2.1231 H       
  41 H41            5.3013     8.0815    -2.4609 H       
  42 H42            5.4751     8.8517    -0.1103 H       
  43 H43            3.7610     8.4481     0.1487 H       
  44 H44            2.3576     7.6699    -1.7663 H       
  45 H45            3.0720     7.5190    -3.3897 H       
  46 H46            5.9510     6.4802    -0.6564 H       
  47 H47            5.2366     6.6311     0.9669 H       
  48 H48            2.8335     5.2984    -2.3124 H       
  49 H49            4.5477     5.7020    -2.5714 H       
  50 H50            2.2417    -8.7297    -1.3507 H       
  51 H51            3.4478   -10.0338    -1.5036 H       
  52 H52            4.9265    -8.5102    -2.8015 H       
  53 H53            3.3326    -8.6618    -3.5861 H       
  54 H54            3.0074     6.0686     0.0382 H       
  55 H55            1.8298    -1.9654     1.3723 H       
  56 H56            2.5894    -3.5751     1.3561 H       
  57 H57            3.4096    -2.2119     2.1544 H       
  58 H58            4.3350    -0.5037    -0.8719 H       
  59 H59            3.9208    -0.2809     0.8448 H       
  60 H60            5.3487    -2.6035     0.8495 H       
  61 H61            5.2828    -2.4940    -0.9258 H       
  62 H62            5.1440     4.0725    -0.8332 H       
  63 H63            4.5689     4.2710     0.8396 H       
  64 H64            2.3281     3.8547    -0.8284 H       
  65 H65            2.7697    -3.0280    -3.6398 H       
@<TRIPOS>BOND
   1    1    2 ar
   2    1    3 ar
   3    1   34 1
   4    2    4 ar
   5    2   35 1
   6    3    7 ar
   7    3   36 1
   8    4    9 ar
   9    4   37 1
  10    5    6 ar
  11    5   10 ar
  12    5   38 1
  13    6   11 ar
  14    6   39 1
  15    7    9 ar
  16    7   13 1
  17    8   10 ar
  18    8   12 ar
  19    8   14 1
  20    9   24 1
  21   10   25 1
  22   11   12 ar
  23   11   32 1
  24   12   33 1
  25   13   27 am
  26   13   30 2
  27   14   29 2
  28   14   31 1
  29   15   16 1
  30   15   17 1
  31   15   40 1
  32   15   41 1
  33   16   18 1
  34   16   42 1
  35   16   43 1
  36   17   19 1
  37   17   44 1
  38   17   45 1
  39   18   22 1
  40   18   46 1
  41   18   47 1
  42   19   22 1
  43   19   48 1
  44   19   49 1
  45   20   21 1
  46   20   32 1
  47   20   50 1
  48   20   51 1
  49   21   33 1
  50   21   52 1
  51   21   53 1
  52   22   26 1
  53   22   54 1
  54   23   28 1
  55   23   55 1
  56   23   56 1
  57   23   57 1
  58   24   28 1
  59   24   58 1
  60   24   59 1
  61   25   28 1
  62   25   60 1
  63   25   61 1
  64   26   27 1
  65   26   62 1
  66   26   63 1
  67   27   64 1
  68   31   65 1

#	End of record

