#	Name: ASD01190055
#	Creating user name:	WinNT
#	Creation time:	15. 06. 2019 19:07

#	Modifying user name:	WinNT
#	Modification time:	15. 06. 2019 19:07

#	Program:	/corina/corina34_cracker 3.40 0067  02.08.2006

@<TRIPOS>MOLECULE
ASD01190055
  45   49    0    0    0
SMALL
NO_CHARGES


@<TRIPOS>ATOM
   1 C1            -0.0187     1.5258     0.0104 C.3     
   2 C2             0.5236     0.1132    -0.2165 C.3     
   3 C3             2.3030     4.2772     1.1043 C.ar    
   4 C4             1.0085     3.8627     0.7358 C.ar    
   5 C5            -0.0307     4.7954     0.7126 C.ar    
   6 C6             0.2610     6.1021     1.0568 C.ar    
   7 C7             1.5584     6.4398     1.4094 C.ar    
   8 N8             2.5237     5.5452     1.4245 N.ar    
   9 N9             3.1137     3.1697     1.0349 N.pl3   
  10 C10            1.1043     2.4308     0.4473 C.2     
  11 C11            2.3855     2.0797     0.6395 C.2     
  12 N12           -2.4808     3.4528    -4.6622 N.pl3   
  13 N13           -3.8119     3.4200    -4.2339 N.2     
  14 C14           -3.8774     2.9808    -3.0090 C.2     
  15 C15           -2.5174     2.6936    -2.5641 C.ar    
  16 C16           -1.9656     2.2096    -1.3727 C.ar    
  17 C17           -0.6142     2.0473    -1.2719 C.ar    
  18 C18            0.2179     2.3589    -2.3403 C.ar    
  19 C19           -0.2974     2.8332    -3.5134 C.ar    
  20 C20           -1.6721     3.0087    -3.6457 C.ar    
  21 C21           -2.0436     3.8667    -5.9272 C.ar    
  22 C22           -2.8172     3.6048    -7.0503 C.ar    
  23 C23           -2.3844     4.0135    -8.2964 C.ar    
  24 C24           -1.1798     4.6842    -8.4264 C.ar    
  25 C25           -0.4068     4.9463    -7.3077 C.ar    
  26 C26           -0.8387     4.5443    -6.0591 C.ar    
  27 F27           -0.7580     5.0828    -9.6464 F       
  28 F28            1.0764    -0.3710     0.9739 F       
  29 F29           -0.5190    -0.7269    -0.6221 F       
  30 F30            1.5091     0.1459    -1.2089 F       
  31 O31           -1.0253     1.4924     1.0241 O.3     
  32 H32           -1.0326     4.5045     0.4335 H       
  33 H33           -0.5149     6.8533     1.0509 H       
  34 H34            1.7826     7.4616     1.6778 H       
  35 H35            4.0626     3.1616     1.2360 H       
  36 H36            2.7825     1.0842     0.5057 H       
  37 H37           -4.7777     2.8525    -2.4264 H       
  38 H38           -2.6055     1.9660    -0.5375 H       
  39 H39            1.2850     2.2247    -2.2421 H       
  40 H40            0.3603     3.0719    -4.3361 H       
  41 H41           -3.7566     3.0815    -6.9493 H       
  42 H42           -2.9857     3.8098    -9.1701 H       
  43 H43            0.5326     5.4692    -7.4113 H       
  44 H44           -0.2378     4.7532    -5.1863 H       
  45 H45           -1.4145     2.3556     1.2206 H       
@<TRIPOS>BOND
   1    1    2 1
   2    1   10 1
   3    1   17 1
   4    1   31 1
   5    2   28 1
   6    2   29 1
   7    2   30 1
   8    3    4 ar
   9    3    8 ar
  10    3    9 1
  11    4    5 ar
  12    4   10 1
  13    5    6 ar
  14    5   32 1
  15    6    7 ar
  16    6   33 1
  17    7    8 ar
  18    7   34 1
  19    9   11 1
  20    9   35 1
  21   10   11 2
  22   11   36 1
  23   12   13 1
  24   12   20 1
  25   12   21 1
  26   13   14 2
  27   14   15 1
  28   14   37 1
  29   15   16 ar
  30   15   20 ar
  31   16   17 ar
  32   16   38 1
  33   17   18 ar
  34   18   19 ar
  35   18   39 1
  36   19   20 ar
  37   19   40 1
  38   21   22 ar
  39   21   26 ar
  40   22   23 ar
  41   22   41 1
  42   23   24 ar
  43   23   42 1
  44   24   25 ar
  45   24   27 1
  46   25   26 ar
  47   25   43 1
  48   26   44 1
  49   31   45 1

#	End of record

