#	Name: ASD01884145
#	Creating user name:	WinNT
#	Creation time:	15. 06. 2019 19:47

#	Modifying user name:	WinNT
#	Modification time:	15. 06. 2019 19:47

#	Program:	/corina/corina34_cracker 3.40 0067  02.08.2006

@<TRIPOS>MOLECULE
ASD01884145
  15   15    0    0    0
SMALL
NO_CHARGES


@<TRIPOS>ATOM
   1 C1            -0.0167     1.3803     0.0096 C.ar    
   2 C2             0.0021    -0.0041     0.0020 C.ar    
   3 C3            -1.2102    -0.6833     0.0104 C.ar    
   4 C4            -2.3877     0.0357     0.0260 C.ar    
   5 N5            -2.3756     1.3557     0.0330 N.ar    
   6 C6            -1.2424     2.0400     0.0307 C.ar    
   7 N7            -1.2768     3.4302     0.0383 N.pl3   
   8 N8            -2.4763     4.0837     0.0480 N.3     
   9 Cl9            1.4675     2.2808     0.0003 Cl      
  10 I10            1.8166    -1.0509    -0.0223 I       
  11 H11           -1.2304    -1.7631     0.0045 H       
  12 H12           -3.3320    -0.4884     0.0322 H       
  13 H13           -0.4490     3.9359     0.0367 H       
  14 H14           -3.0415     3.7906     0.8308 H       
  15 H15           -2.3431     5.0839     0.0526 H       
@<TRIPOS>BOND
   1    1    2 ar
   2    1    9 1
   3    1    6 ar
   4    2    3 ar
   5    2   10 1
   6    3    4 ar
   7    3   11 1
   8    4    5 ar
   9    4   12 1
  10    5    6 ar
  11    6    7 1
  12    7    8 1
  13    7   13 1
  14    8   14 1
  15    8   15 1

#	End of record

