#	Name: ASD01850094
#	Creating user name:	WinNT
#	Creation time:	15. 06. 2019 19:38

#	Modifying user name:	WinNT
#	Modification time:	15. 06. 2019 19:38

#	Program:	/corina/corina34_cracker 3.40 0067  02.08.2006

@<TRIPOS>MOLECULE
ASD01850094
  49   53    0    0    0
SMALL
NO_CHARGES


@<TRIPOS>ATOM
   1 C1             0.1490     1.0870    -0.1196 C.ar    
   2 C2             0.3397    -0.2773     0.0085 C.ar    
   3 C3             1.6106    -0.7891     0.1729 C.ar    
   4 C4             2.7072     0.0713     0.2099 C.ar    
   5 C5             2.5024     1.4522     0.0976 C.ar    
   6 C6             1.2315     1.9493    -0.0750 C.ar    
   7 C7             4.1595    -0.1707     0.3470 C.2     
   8 N8             4.8266     0.9685     0.1667 N.am    
   9 C9             3.8559     2.0858     0.2321 C.3     
  10 C10            6.0912     1.6575    -0.1518 C.3     
  11 C11            5.6436     2.7498    -1.1543 C.3     
  12 N12            4.2009     2.9549    -0.8983 N.am    
  13 C13            3.3694     3.7755    -1.5703 C.2     
  14 C14            3.9066     4.6932    -2.5957 C.ar    
  15 C15            3.0729     5.6403    -3.1939 C.ar    
  16 C16            3.5806     6.4956    -4.1513 C.ar    
  17 C17            4.9171     6.4143    -4.5186 C.ar    
  18 C18            5.7471     5.4750    -3.9271 C.ar    
  19 C19            5.2511     4.6203    -2.9659 C.ar    
  20 O20            2.1773     3.7606    -1.3325 O.2     
  21 C21            3.9729     2.8205     1.5427 C.ar    
  22 C22            3.2241     3.9667     1.7652 C.ar    
  23 C23            3.3338     4.6405     2.9732 C.ar    
  24 C24            4.1878     4.1687     3.9508 C.ar    
  25 C25            4.9336     3.0260     3.7263 C.ar    
  26 C26            4.8219     2.3496     2.5258 C.ar    
  27 O27            4.6686    -1.2479     0.5880 O.2     
  28 F28            5.4100     7.2531    -5.4559 F       
  29 F29            2.7760     7.4125    -4.7319 F       
  30 O30            2.3848     4.4291     0.8016 O.3     
  31 C31            1.6450     5.6148     1.1001 C.3     
  32 H32           -0.8471     1.4803    -0.2594 H       
  33 H33           -0.5093    -0.9442    -0.0199 H       
  34 H34            1.7556    -1.8546     0.2730 H       
  35 H35            1.0779     3.0135    -0.1765 H       
  36 H36            6.5217     2.1074     0.7428 H       
  37 H37            6.7978     0.9712    -0.6185 H       
  38 H38            6.1934     3.6739    -0.9753 H       
  39 H39            5.8003     2.4092    -2.1778 H       
  40 H40            2.0332     5.7034    -2.9085 H       
  41 H41            6.7859     5.4156    -4.2166 H       
  42 H42            5.8995     3.8890    -2.5062 H       
  43 H43            2.7520     5.5333     3.1488 H       
  44 H44            4.2735     4.6928     4.8912 H       
  45 H45            5.6014     2.6590     4.4917 H       
  46 H46            5.4055     1.4574     2.3528 H       
  47 H47            1.0157     5.8743     0.2488 H       
  48 H48            1.0189     5.4417     1.9754 H       
  49 H49            2.3362     6.4327     1.3037 H       
@<TRIPOS>BOND
   1    1    2 ar
   2    1    6 ar
   3    1   32 1
   4    2    3 ar
   5    2   33 1
   6    3    4 ar
   7    3   34 1
   8    4    5 ar
   9    4    7 1
  10    5    6 ar
  11    5    9 1
  12    6   35 1
  13    7    8 am
  14    7   27 2
  15    8    9 1
  16    8   10 1
  17    9   21 1
  18    9   12 1
  19   10   11 1
  20   10   36 1
  21   10   37 1
  22   11   12 1
  23   11   38 1
  24   11   39 1
  25   12   13 am
  26   13   14 1
  27   13   20 2
  28   14   15 ar
  29   14   19 ar
  30   15   16 ar
  31   15   40 1
  32   16   17 ar
  33   16   29 1
  34   17   18 ar
  35   17   28 1
  36   18   19 ar
  37   18   41 1
  38   19   42 1
  39   21   22 ar
  40   21   26 ar
  41   22   23 ar
  42   22   30 1
  43   23   24 ar
  44   23   43 1
  45   24   25 ar
  46   24   44 1
  47   25   26 ar
  48   25   45 1
  49   26   46 1
  50   30   31 1
  51   31   47 1
  52   31   48 1
  53   31   49 1

#	End of record

