#	Name: ASD05313238
#	Creating user name:	WinNT
#	Creation time:	15. 06. 2019 20:59

#	Modifying user name:	WinNT
#	Modification time:	15. 06. 2019 20:59

#	Program:	/corina/corina34_cracker 3.40 0067  02.08.2006

@<TRIPOS>MOLECULE
ASD05313238
  30   32    0    0    0
SMALL
NO_CHARGES


@<TRIPOS>ATOM
   1 C1            -0.0743     0.8214     1.0226 C.2     
   2 C2             0.1121    -0.6172     0.5955 C.3     
   3 N3             0.9279     1.7332     1.0488 N.pl3   
   4 N4             1.4552    -0.7193    -0.0044 N.am    
   5 C5             2.5689    -0.0384     0.6733 C.3     
   6 C6             2.3160     1.4733     0.6616 C.3     
   7 N7            -1.1711     1.3932     1.4214 N.2     
   8 C8            -0.9162     2.6784     1.7174 C.2     
   9 C9             0.3941     2.9081     1.4912 C.2     
  10 C10            1.6564    -1.4165    -1.1402 C.2     
  11 O11            2.7491    -1.4078    -1.6733 O.2     
  12 C12            0.5500    -2.1908    -1.7370 C.ar    
  13 C13            0.3203    -2.1385    -3.1151 C.ar    
  14 C14           -0.7151    -2.8650    -3.6667 C.ar    
  15 C15           -1.5260    -3.6447    -2.8570 C.ar    
  16 C16           -1.3024    -3.6993    -1.4894 C.ar    
  17 C17           -0.2677    -2.9827    -0.9279 C.ar    
  18 F18           -2.5384    -4.3540    -3.4021 F       
  19 Cl19           1.3351    -1.1617    -4.1299 Cl      
  20 Br20           1.3134     4.5412     1.7429 Br      
  21 H21            0.0411    -1.2745     1.4621 H       
  22 H22           -0.6453    -0.8876    -0.1404 H       
  23 H23            2.6372    -0.3883     1.7033 H       
  24 H24            3.5007    -0.2559     0.1511 H       
  25 H25            2.4939     1.8644    -0.3401 H       
  26 H26            2.9883     1.9604     1.3680 H       
  27 H27           -1.6340     3.4011     2.0764 H       
  28 H28           -0.8943    -2.8256    -4.7310 H       
  29 H29           -1.9380    -4.3082    -0.8636 H       
  30 H30           -0.0921    -3.0303     0.1367 H       
@<TRIPOS>BOND
   1    1    2 1
   2    1    3 1
   3    1    7 2
   4    2    4 1
   5    2   21 1
   6    2   22 1
   7    3    6 1
   8    3    9 1
   9    4    5 1
  10    4   10 am
  11    5    6 1
  12    5   23 1
  13    5   24 1
  14    6   25 1
  15    6   26 1
  16    7    8 1
  17    8    9 2
  18    8   27 1
  19    9   20 1
  20   10   11 2
  21   10   12 1
  22   12   13 ar
  23   12   17 ar
  24   13   14 ar
  25   13   19 1
  26   14   15 ar
  27   14   28 1
  28   15   16 ar
  29   15   18 1
  30   16   17 ar
  31   16   29 1
  32   17   30 1

#	End of record

