#	Name: ASD09360002
#	Creating user name:	WinNT
#	Creation time:	15. 06. 2019 21:21

#	Modifying user name:	WinNT
#	Modification time:	15. 06. 2019 21:21

#	Program:	/corina/corina34_cracker 3.40 0067  02.08.2006

@<TRIPOS>MOLECULE
ASD09360002
  81   87    0    0    0
SMALL
NO_CHARGES


@<TRIPOS>ATOM
   1 N1            -0.1227     1.0685     0.1719 N.am    
   2 C2             0.0784    -0.2544     0.0322 C.2     
   3 C3            -1.2072    -0.9365    -0.2201 C.2     
   4 C4            -2.2026    -0.0185    -0.2341 C.2     
   5 C5            -1.5601     1.3246     0.0231 C.3     
   6 C6             0.8614     2.0275     0.4204 C.ar    
   7 C7            -2.1186     1.9333     1.2836 C.ar    
   8 C8            -3.6284    -0.2782    -0.4523 C.2     
   9 O9             1.1587    -0.8066     0.1024 O.2     
  10 O10           -1.3651    -2.2671    -0.4073 O.3     
  11 O11           -4.2623    -0.9189     0.3655 O.2     
  12 C12           -4.2958     0.2375    -1.6643 C.ar    
  13 C13           -3.0080     2.9854     1.2049 C.ar    
  14 C14           -3.5236     3.5473     2.3714 C.ar    
  15 C15           -3.1375     3.0427     3.6112 C.ar    
  16 C16           -2.2471     1.9900     3.6782 C.ar    
  17 C17           -1.7429     1.4325     2.5173 C.ar    
  18 C18            2.1912     1.6414     0.5448 C.ar    
  19 C19            3.1642     2.5866     0.7902 C.ar    
  20 C20            2.8140     3.9303     0.9136 C.ar    
  21 C21            1.4799     4.3153     0.7885 C.ar    
  22 C22            0.5108     3.3678     0.5375 C.ar    
  23 C23           -5.6642     0.0217    -1.8551 C.ar    
  24 C24           -6.2828     0.5014    -2.9807 C.ar    
  25 C25           -5.5472     1.2050    -3.9361 C.ar    
  26 C26           -4.1809     1.4207    -3.7470 C.ar    
  27 C27           -3.5612     0.9469    -2.6195 C.ar    
  28 C28            3.8593     4.9490     1.1781 C.ar    
  29 C29            3.5110     6.2924     1.3017 C.ar    
  30 C30            4.4886     7.2365     1.5485 C.ar    
  31 C31            5.8116     6.8497     1.6724 C.ar    
  32 C32            6.1622     5.5172     1.5504 C.ar    
  33 C33            5.1929     4.5650     1.3096 C.ar    
  34 Br34           4.0185     9.0604     1.7167 Br      
  35 C35           -4.4801     4.6791     2.2931 C.ar    
  36 C36           -4.9101     5.3123     3.4568 C.ar    
  37 C37           -5.8014     6.3664     3.3776 C.ar    
  38 C38           -6.2656     6.7916     2.1438 C.ar    
  39 C39           -5.8409     6.1647     0.9864 C.ar    
  40 C40           -4.9467     5.1157     1.0545 C.ar    
  41 C41           -6.2170     1.7229    -5.1520 C.ar    
  42 C42           -5.4660     2.3289    -6.1594 C.ar    
  43 C43           -6.0922     2.8097    -7.2893 C.ar    
  44 C44           -7.4694     2.6917    -7.4253 C.ar    
  45 C45           -8.2200     2.0889    -6.4242 C.ar    
  46 C46           -7.5993     1.6005    -5.2945 C.ar    
  47 C47            6.8742     7.8841     1.9406 C.3     
  48 F48           -6.2203     6.9819     4.5049 F       
  49 O49           -8.0835     3.1673    -8.5396 O.3     
  50 C50           -9.5022     3.0131    -8.6143 C.3     
  51 H51           -1.7314     1.9903    -0.8229 H       
  52 H52           -0.5410    -2.7711    -0.3632 H       
  53 H53           -3.3038     3.3729     0.2412 H       
  54 H54           -3.5338     3.4747     4.5183 H       
  55 H55           -1.9468     1.5984     4.6389 H       
  56 H56           -1.0468     0.6088     2.5743 H       
  57 H57            2.4621     0.6003     0.4495 H       
  58 H58            4.1971     2.2862     0.8871 H       
  59 H59            1.2066     5.3558     0.8838 H       
  60 H60           -0.5228     3.6656     0.4405 H       
  61 H61           -6.2334    -0.5228    -1.1163 H       
  62 H62           -7.3396     0.3346    -3.1284 H       
  63 H63           -3.6128     1.9648    -4.4870 H       
  64 H64           -2.5043     1.1142    -2.4732 H       
  65 H65            2.4789     6.5950     1.2044 H       
  66 H66            7.1962     5.2209     1.6477 H       
  67 H67            5.4680     3.5249     1.2150 H       
  68 H68           -4.5483     4.9805     4.4187 H       
  69 H69           -6.9618     7.6152     2.0853 H       
  70 H70           -6.2065     6.4996     0.0270 H       
  71 H71           -4.6160     4.6276     0.1496 H       
  72 H72           -4.3951     2.4216    -6.0539 H       
  73 H73           -5.5114     3.2789    -8.0696 H       
  74 H74           -9.2908     1.9991    -6.5328 H       
  75 H75           -8.1835     1.1319    -4.5164 H       
  76 H76            6.9986     8.0066     3.0166 H       
  77 H77            7.8170     7.5591     1.5006 H       
  78 H78            6.5756     8.8348     1.4988 H       
  79 H79           -9.7553     1.9538    -8.5699 H       
  80 H80           -9.9688     3.5335    -7.7780 H       
  81 H81           -9.8645     3.4342    -9.5521 H       
@<TRIPOS>BOND
   1    1    2 am
   2    1    6 1
   3    1    5 1
   4    2    3 1
   5    2    9 2
   6    3    4 2
   7    3   10 1
   8    4    5 1
   9    4    8 1
  10    5    7 1
  11    5   51 1
  12    6   18 ar
  13    6   22 ar
  14    7   13 ar
  15    7   17 ar
  16    8   11 2
  17    8   12 1
  18   10   52 1
  19   12   23 ar
  20   12   27 ar
  21   13   14 ar
  22   13   53 1
  23   14   15 ar
  24   14   35 1
  25   15   16 ar
  26   15   54 1
  27   16   17 ar
  28   16   55 1
  29   17   56 1
  30   18   19 ar
  31   18   57 1
  32   19   20 ar
  33   19   58 1
  34   20   21 ar
  35   20   28 1
  36   21   22 ar
  37   21   59 1
  38   22   60 1
  39   23   24 ar
  40   23   61 1
  41   24   25 ar
  42   24   62 1
  43   25   26 ar
  44   25   41 1
  45   26   27 ar
  46   26   63 1
  47   27   64 1
  48   28   29 ar
  49   28   33 ar
  50   29   30 ar
  51   29   65 1
  52   30   31 ar
  53   30   34 1
  54   31   32 ar
  55   31   47 1
  56   32   33 ar
  57   32   66 1
  58   33   67 1
  59   35   36 ar
  60   35   40 ar
  61   36   37 ar
  62   36   68 1
  63   37   38 ar
  64   37   48 1
  65   38   39 ar
  66   38   69 1
  67   39   40 ar
  68   39   70 1
  69   40   71 1
  70   41   42 ar
  71   41   46 ar
  72   42   43 ar
  73   42   72 1
  74   43   44 ar
  75   43   73 1
  76   44   45 ar
  77   44   49 1
  78   45   46 ar
  79   45   74 1
  80   46   75 1
  81   47   76 1
  82   47   77 1
  83   47   78 1
  84   49   50 1
  85   50   79 1
  86   50   80 1
  87   50   81 1

#	End of record

