#	Name: ASD03731145
#	Creating user name:	WinNT
#	Creation time:	15. 06. 2019 20:45

#	Modifying user name:	WinNT
#	Modification time:	15. 06. 2019 20:45

#	Program:	/corina/corina34_cracker 3.40 0067  02.08.2006

@<TRIPOS>MOLECULE
ASD03731145
  58   65    0    0    0
SMALL
NO_CHARGES


@<TRIPOS>ATOM
   1 O1            -0.0174     1.4356     0.0099 O.3     
   2 C2             0.0021    -0.0041     0.0020 C.3     
   3 O3             1.2461    -0.3262    -0.6470 O.3     
   4 C4             2.0710     0.7345    -0.4034 C.ar    
   5 C5             1.2935     1.8178    -0.0005 C.ar    
   6 C6             3.4452     0.8649    -0.4936 C.ar    
   7 C7             4.0602     2.0747    -0.1856 C.ar    
   8 C8             3.2723     3.1522     0.2076 C.ar    
   9 C9             1.9024     3.0234     0.3045 C.ar    
  10 O10            5.3831     2.4065    -0.1922 O.3     
  11 C11            4.2098     4.3069     0.4393 C.3     
  12 C12            5.5129     3.8410    -0.2242 C.3     
  13 N13            3.6127     6.4762     0.8417 N.am    
  14 C14            3.6993     5.5834    -0.1645 C.2     
  15 C15            4.3992     4.6044     1.8972 C.ar    
  16 C16            4.8378     3.8614     2.9705 C.ar    
  17 C17            4.9039     4.4334     4.2285 C.ar    
  18 C18            4.5284     5.7527     4.4051 C.ar    
  19 C19            4.0877     6.5009     3.3334 C.ar    
  20 C20            4.0181     5.9334     2.0634 C.ar    
  21 O21            3.4201     5.7739    -1.3293 O.2     
  22 C22            3.1483     7.8554     0.6736 C.3     
  23 N23           -1.1563     8.3311     0.3743 N.3     
  24 C24           -0.3591     9.4556     0.8212 C.3     
  25 C25            1.1560     9.3606     0.8253 C.3     
  26 C26            1.6327     7.9114     0.8755 C.3     
  27 C27            0.9266     7.1545    -0.2596 C.3     
  28 C28           -0.5523     7.0581     0.1020 C.3     
  29 C29           -1.6102     9.0499    -0.6979 C.ar    
  30 C30           -0.8978    10.2299    -0.3275 C.ar    
  31 C31           -0.9653    11.4056    -1.0387 C.ar    
  32 C32           -1.7776    11.3495    -2.1747 C.ar    
  33 C33           -2.4571    10.2137    -2.5533 C.ar    
  34 C34           -2.4111     9.0159    -1.8445 C.ar    
  35 H35           -0.0105    -0.3928     1.0203 H       
  36 H36           -0.8401    -0.3953    -0.5687 H       
  37 H37            4.0448     0.0222    -0.8046 H       
  38 H38            1.3032     3.8652     0.6186 H       
  39 H39            6.3787     4.1643     0.3536 H       
  40 H40            5.5749     4.2013    -1.2510 H       
  41 H41            5.1300     2.8312     2.8302 H       
  42 H42            5.2475     3.8510     5.0706 H       
  43 H43            4.5803     6.1993     5.3870 H       
  44 H44            3.7954     7.5303     3.4796 H       
  45 H45            3.6366     8.4954     1.4085 H       
  46 H46            3.3941     8.2017    -0.3303 H       
  47 H47           -0.7313     9.8607     1.7622 H       
  48 H48            1.5438     9.8310    -0.0782 H       
  49 H49            1.5428     9.8921     1.6948 H       
  50 H50            1.3707     7.4684     1.8364 H       
  51 H51            1.0437     7.6994    -1.1964 H       
  52 H52            1.3497     6.1547    -0.3569 H       
  53 H53           -0.6559     6.4263     0.9841 H       
  54 H54           -1.0845     6.5886    -0.7253 H       
  55 H55           -0.4345    12.2986    -0.7434 H       
  56 H56           -1.8769    12.2368    -2.7823 H       
  57 H57           -3.0592    10.2539    -3.4489 H       
  58 H58           -2.9497     8.1327    -2.1548 H       
@<TRIPOS>BOND
   1    1    2 1
   2    1    5 1
   3    2    3 1
   4    2   35 1
   5    2   36 1
   6    3    4 1
   7    4    5 ar
   8    4    6 ar
   9    5    9 ar
  10    6    7 ar
  11    6   37 1
  12    7    8 ar
  13    7   10 1
  14    8    9 ar
  15    8   11 1
  16    9   38 1
  17   10   12 1
  18   11   12 1
  19   11   14 1
  20   11   15 1
  21   12   39 1
  22   12   40 1
  23   13   14 am
  24   13   20 1
  25   13   22 1
  26   14   21 2
  27   15   16 ar
  28   15   20 ar
  29   16   17 ar
  30   16   41 1
  31   17   18 ar
  32   17   42 1
  33   18   19 ar
  34   18   43 1
  35   19   20 ar
  36   19   44 1
  37   22   26 1
  38   22   45 1
  39   22   46 1
  40   23   24 1
  41   23   28 1
  42   23   29 1
  43   24   25 1
  44   24   30 1
  45   24   47 1
  46   25   26 1
  47   25   48 1
  48   25   49 1
  49   26   27 1
  50   26   50 1
  51   27   28 1
  52   27   51 1
  53   27   52 1
  54   28   53 1
  55   28   54 1
  56   29   30 ar
  57   29   34 ar
  58   30   31 ar
  59   31   32 ar
  60   31   55 1
  61   32   33 ar
  62   32   56 1
  63   33   34 ar
  64   33   57 1
  65   34   58 1

#	End of record

