#	Name: ASD08070349
#	Creating user name:	WinNT
#	Creation time:	15. 06. 2019 21:14

#	Modifying user name:	WinNT
#	Modification time:	15. 06. 2019 21:14

#	Program:	/corina/corina34_cracker 3.40 0067  02.08.2006

@<TRIPOS>MOLECULE
ASD08070349
  45   46    0    0    0
SMALL
NO_CHARGES


@<TRIPOS>ATOM
   1 C1            -0.0179     1.4718     0.0101 C.2     
   2 C2             0.0021    -0.0041     0.0020 C.ar    
   3 C3             0.0231    -0.7110     1.2072 C.ar    
   4 C4             0.0418    -2.0878     1.1953 C.ar    
   5 C5             0.0402    -2.7744    -0.0132 C.ar    
   6 C6             0.0198    -2.0749    -1.2142 C.ar    
   7 C7            -0.0057    -0.6981    -1.2108 C.ar    
   8 O8             1.0266     2.0940     0.0035 O.2     
   9 N9            -1.1942     2.1298     0.0193 N.am    
  10 C10           -1.2140     3.5946     0.0273 C.3     
  11 C11           -2.5311     4.0901    -0.5734 C.3     
  12 C12           -2.5518     5.6199    -0.5649 C.3     
  13 C13           -2.4262     6.1238     0.8742 C.3     
  14 C14           -1.1092     5.6283     1.4749 C.3     
  15 C15           -1.0884     4.0984     1.4665 C.3     
  16 C16           -2.6567     3.5862    -2.0125 C.3     
  17 C17           -0.0347     0.0593    -2.5133 C.3     
  18 C18            0.0259     0.0324     2.5180 C.3     
  19 O19            0.0591    -4.1314    -0.0207 O.3     
  20 C20            0.0562    -4.7732    -1.2974 C.3     
  21 H21            0.0581    -2.6350     2.1264 H       
  22 H22            0.0189    -2.6120    -2.1511 H       
  23 H23           -2.0275     1.6334     0.0205 H       
  24 H24           -0.3800     3.9725    -0.5640 H       
  25 H25           -3.3651     3.7121     0.0180 H       
  26 H26           -1.7178     5.9979    -1.1563 H       
  27 H27           -3.4901     5.9729    -0.9929 H       
  28 H28           -2.4410     7.2136     0.8802 H       
  29 H29           -3.2602     5.7458     1.4656 H       
  30 H30           -0.2752     6.0062     0.8836 H       
  31 H31           -1.0197     5.9872     2.5003 H       
  32 H32           -1.9224     3.7205     2.0579 H       
  33 H33           -0.1502     3.7454     1.8945 H       
  34 H34           -2.6419     2.4964    -2.0185 H       
  35 H35           -3.5949     3.9392    -2.4405 H       
  36 H36           -1.8227     3.9642    -2.6039 H       
  37 H37            0.9858     0.2559    -2.8420 H       
  38 H38           -0.5512    -0.5345    -3.2674 H       
  39 H39           -0.5595     1.0042    -2.3726 H       
  40 H40           -1.0010     0.1980     2.8440 H       
  41 H41            0.5548    -0.5556     3.2681 H       
  42 H42            0.5257     0.9925     2.3902 H       
  43 H43           -0.8429    -4.4898    -1.8446 H       
  44 H44            0.9368    -4.4649    -1.8610 H       
  45 H45            0.0726    -5.8545    -1.1606 H       
@<TRIPOS>BOND
   1    1    2 1
   2    1    8 2
   3    1    9 am
   4    2    3 ar
   5    2    7 ar
   6    3    4 ar
   7    3   18 1
   8    4    5 ar
   9    4   21 1
  10    5    6 ar
  11    5   19 1
  12    6    7 ar
  13    6   22 1
  14    7   17 1
  15    9   10 1
  16    9   23 1
  17   10   11 1
  18   10   15 1
  19   10   24 1
  20   11   12 1
  21   11   16 1
  22   11   25 1
  23   12   13 1
  24   12   26 1
  25   12   27 1
  26   13   14 1
  27   13   28 1
  28   13   29 1
  29   14   15 1
  30   14   30 1
  31   14   31 1
  32   15   32 1
  33   15   33 1
  34   16   34 1
  35   16   35 1
  36   16   36 1
  37   17   37 1
  38   17   38 1
  39   17   39 1
  40   18   40 1
  41   18   41 1
  42   18   42 1
  43   19   20 1
  44   20   43 1
  45   20   44 1
  46   20   45 1

#	End of record

