#	Name: ASD03930178
#	Creating user name:	WinNT
#	Creation time:	15. 06. 2019 20:47

#	Modifying user name:	WinNT
#	Modification time:	15. 06. 2019 20:47

#	Program:	/corina/corina34_cracker 3.40 0067  02.08.2006

@<TRIPOS>MOLECULE
ASD03930178
  41   44    0    0    0
SMALL
NO_CHARGES


@<TRIPOS>ATOM
   1 S1            -0.0760     4.0320    -0.9986 S.o2    
   2 N2            -0.7571     2.5489    -1.3367 N.am    
   3 C3            -0.4957     1.9197    -2.6275 C.3     
   4 C4             0.9722     1.5804    -2.8378 C.3     
   5 O5             1.7783     2.7641    -2.8754 O.3     
   6 C6             2.3634     3.1164    -1.7026 C.ar    
   7 C7             1.6338     3.6834    -0.6667 C.ar    
   8 C8             3.7226     2.8915    -1.5136 C.ar    
   9 C9             4.3090     3.1904    -0.2999 C.ar    
  10 C10            3.5558     3.7153     0.7399 C.ar    
  11 C11            2.2008     3.9682     0.5474 C.ar    
  12 O12            4.1378     3.9820     1.9394 O.3     
  13 C13            3.3388     4.3929     2.9589 C.ar    
  14 C14            2.7483     3.4596     3.7958 C.ar    
  15 C15            1.9308     3.8848     4.8394 C.ar    
  16 C16            1.7108     5.2468     5.0366 C.ar    
  17 C17            2.3028     6.1700     4.1983 C.ar    
  18 C18            3.1188     5.7479     3.1653 C.ar    
  19 O19            0.7701     1.0629     6.5491 O.3     
  20 N20            1.4156     1.5903     5.6681 N.2     
  21 C21            1.2948     2.8903     5.7392 C.2     
  22 N22            0.4822     3.1591     6.7860 N.2     
  23 C23            0.1584     1.9936     7.2883 C.2     
  24 C24           -0.7357     1.7481     8.4762 C.3     
  25 O25           -0.1145     4.7849    -2.2031 O.2     
  26 O26           -0.6483     4.4768     0.2237 O.2     
  27 H27           -1.3212     2.1082    -0.6821 H       
  28 H28           -1.0809     1.0026    -2.6956 H       
  29 H29           -0.8160     2.5970    -3.4192 H       
  30 H30            1.3118     0.9428    -2.0215 H       
  31 H31            1.0831     1.0427    -3.7794 H       
  32 H32            4.3194     2.4836    -2.3160 H       
  33 H33            5.3650     3.0134    -0.1585 H       
  34 H34            1.6034     4.3833     1.3457 H       
  35 H35            2.9215     2.4052     3.6388 H       
  36 H36            1.0768     5.5800     5.8450 H       
  37 H37            2.1310     7.2251     4.3522 H       
  38 H38            3.5831     6.4741     2.5147 H       
  39 H39           -0.8166     0.6758     8.6547 H       
  40 H40           -0.3118     2.2319     9.3562 H       
  41 H41           -1.7255     2.1589     8.2771 H       
@<TRIPOS>BOND
   1    1    2 am
   2    1    7 1
   3    1   25 2
   4    1   26 2
   5    2    3 1
   6    2   27 1
   7    3    4 1
   8    3   28 1
   9    3   29 1
  10    4    5 1
  11    4   30 1
  12    4   31 1
  13    5    6 1
  14    6    7 ar
  15    6    8 ar
  16    7   11 ar
  17    8    9 ar
  18    8   32 1
  19    9   10 ar
  20    9   33 1
  21   10   11 ar
  22   10   12 1
  23   11   34 1
  24   12   13 1
  25   13   14 ar
  26   13   18 ar
  27   14   15 ar
  28   14   35 1
  29   15   16 ar
  30   15   21 1
  31   16   17 ar
  32   16   36 1
  33   17   18 ar
  34   17   37 1
  35   18   38 1
  36   19   20 1
  37   19   23 1
  38   20   21 2
  39   21   22 1
  40   22   23 2
  41   23   24 1
  42   24   39 1
  43   24   40 1
  44   24   41 1

#	End of record

