#	Name: ASD01410942
#	Creating user name:	WinNT
#	Creation time:	15. 06. 2019 19:19

#	Modifying user name:	WinNT
#	Modification time:	15. 06. 2019 19:19

#	Program:	/corina/corina34_cracker 3.40 0067  02.08.2006

@<TRIPOS>MOLECULE
ASD01410942
  64   67    0    0    0
SMALL
NO_CHARGES


@<TRIPOS>ATOM
   1 C1            -1.3919     3.0600     0.1586 C.ar    
   2 C2            -1.3307     0.6994    -0.2880 C.ar    
   3 C3            -2.7183     0.6612    -0.3025 C.ar    
   4 C4            -3.4503     1.8364    -0.0728 C.ar    
   5 C5            -2.7746     3.0382     0.1526 C.ar    
   6 O6            -0.7337     4.2283     0.3835 O.3     
   7 C7            -0.0497     4.7829    -0.6486 C.ar    
   8 N8            -3.3820    -0.5416    -0.5344 N.am    
   9 C9            -3.6700    -1.3618     0.4955 C.2     
  10 C10           -3.4298    -0.9173     1.8824 C.ar    
  11 O11           -4.1277    -2.4678     0.2823 O.2     
  12 C12           -2.7719     0.2904     2.1285 C.ar    
  13 C13           -3.6357    -1.2768     4.2527 C.ar    
  14 C14           -2.9784    -0.0823     4.4864 C.ar    
  15 C15           -2.5506     0.6999     3.4255 C.ar    
  16 Br16          -2.6697     0.4901     6.2620 Br      
  17 N17           -0.1330     4.2446    -1.8543 N.ar    
  18 C18           -3.7668    -0.9148    -1.8978 C.3     
  19 C19           -4.5326     0.2404    -2.5459 C.3     
  20 C20            0.7267     5.9138    -0.4306 C.ar    
  21 C21            1.4195     6.4698    -1.4921 C.ar    
  22 C22            1.3104     5.8719    -2.7398 C.ar    
  23 C23            0.5154     4.7519    -2.8851 C.ar    
  24 C24           -3.8648    -1.7005     2.9567 C.ar    
  25 C25            2.0461     6.4425    -3.9248 C.3     
  26 C26           -2.5109    -1.2176    -2.7174 C.3     
  27 O27           -1.8592    -2.3711    -2.1819 O.3     
  28 C28           -0.6680    -2.7417    -2.8788 C.3     
  29 C29           -0.6728     1.8907    -0.0588 C.ar    
  30 N30            3.3716     5.8258    -4.0197 N.pl3   
  31 N31            3.6336     4.7552    -4.6823 N.2     
  32 C32            4.9125     4.4829    -4.5550 C.2     
  33 C33            5.4392     5.4900    -3.7430 C.2     
  34 N34            4.4328     6.2844    -3.4564 N.2     
  35 F35           -4.5071    -2.8669     2.7285 F       
  36 C36            0.8133     6.5274     0.9430 C.3     
  37 F37            1.6508     7.6473     0.9016 F       
  38 F38           -0.4639     6.9155     1.3618 F       
  39 F39            1.3334     5.5891     1.8410 F       
  40 C40           -4.9237     1.8061    -0.0862 C.2     
  41 O41           -5.5092     0.7422    -0.1299 O.2     
  42 O42           -5.6217     2.9583    -0.0499 O.3     
  43 H43           -0.7649    -0.2035    -0.4641 H       
  44 H44           -3.3309     3.9482     0.3221 H       
  45 H45           -2.4371     0.9018     1.3035 H       
  46 H46           -3.9665    -1.8817     5.0840 H       
  47 H47           -2.0417     1.6333     3.6158 H       
  48 H48           -4.4024    -1.7998    -1.8665 H       
  49 H49           -3.9165     1.1394    -2.5292 H       
  50 H50           -4.7727    -0.0164    -3.5776 H       
  51 H51           -5.4541     0.4211    -1.9926 H       
  52 H52            2.0308     7.3492    -1.3527 H       
  53 H53            0.4274     4.2826    -3.8538 H       
  54 H54            1.4835     6.2365    -4.8354 H       
  55 H55            2.1547     7.5199    -3.8006 H       
  56 H56           -2.7903    -1.4065    -3.7539 H       
  57 H57           -1.8338    -0.3645    -2.6733 H       
  58 H58           -0.9092    -2.9623    -3.9187 H       
  59 H59            0.0473    -1.9203    -2.8381 H       
  60 H60           -0.2335    -3.6253    -2.4113 H       
  61 H61            0.4069     1.9145    -0.0486 H       
  62 H62            5.4470     3.6508    -4.9889 H       
  63 H63            6.4644     5.5964    -3.4206 H       
  64 H64           -6.5861     2.8878    -0.0605 H       
@<TRIPOS>BOND
   1    1   29 ar
   2    1    6 1
   3    1    5 ar
   4    2    3 ar
   5    2   29 ar
   6    2   43 1
   7    3    4 ar
   8    3    8 1
   9    4    5 ar
  10    4   40 1
  11    5   44 1
  12    6    7 1
  13    7   20 ar
  14    7   17 ar
  15    8    9 am
  16    8   18 1
  17    9   11 2
  18    9   10 1
  19   10   12 ar
  20   10   24 ar
  21   12   15 ar
  22   12   45 1
  23   13   14 ar
  24   13   24 ar
  25   13   46 1
  26   14   15 ar
  27   14   16 1
  28   15   47 1
  29   17   23 ar
  30   18   19 1
  31   18   26 1
  32   18   48 1
  33   19   49 1
  34   19   50 1
  35   19   51 1
  36   20   21 ar
  37   20   36 1
  38   21   22 ar
  39   21   52 1
  40   22   23 ar
  41   22   25 1
  42   23   53 1
  43   24   35 1
  44   25   30 1
  45   25   54 1
  46   25   55 1
  47   26   27 1
  48   26   56 1
  49   26   57 1
  50   27   28 1
  51   28   58 1
  52   28   59 1
  53   28   60 1
  54   29   61 1
  55   30   31 1
  56   30   34 1
  57   31   32 2
  58   32   33 1
  59   32   62 1
  60   33   34 2
  61   33   63 1
  62   36   37 1
  63   36   38 1
  64   36   39 1
  65   40   41 2
  66   40   42 1
  67   42   64 1

#	End of record

