#	Name: ASD01911154
#	Creating user name:	WinNT
#	Creation time:	15. 06. 2019 19:57

#	Modifying user name:	WinNT
#	Modification time:	15. 06. 2019 19:57

#	Program:	/corina/corina34_cracker 3.40 0067  02.08.2006

@<TRIPOS>MOLECULE
ASD01911154
  49   52    0    0    0
SMALL
NO_CHARGES


@<TRIPOS>ATOM
   1 C1            -0.0167     1.3769     0.0096 C.ar    
   2 C2             0.0021    -0.0041     0.0020 C.ar    
   3 C3             1.2148    -0.6805    -0.0132 C.ar    
   4 C4             2.4052     0.0345    -0.0208 C.ar    
   5 C5             2.3798     1.4153    -0.0132 C.ar    
   6 C6             1.1705     2.0860     0.0021 C.ar    
   7 N7             1.2372    -2.0811    -0.0205 N.pl3   
   8 N8             0.3284    -2.9225     0.6337 N.2     
   9 C9             0.6738    -4.1704     0.3948 C.2     
  10 C10            1.8193    -4.1608    -0.4232 C.2     
  11 C11            2.1430    -2.8640    -0.6698 C.2     
  12 C12           -0.0235    -5.3784     0.9012 C.ar    
  13 C13           -1.1527    -5.2476     1.7071 C.ar    
  14 C14           -1.7974    -6.3745     2.1754 C.ar    
  15 C15           -1.3245    -7.6320     1.8461 C.ar    
  16 C16           -0.2037    -7.7677     1.0469 C.ar    
  17 C17            0.4451    -6.6476     0.5679 C.ar    
  18 N18            3.2142    -2.4161    -1.4405 N.am    
  19 C19            4.0439    -3.3047    -2.0223 C.2     
  20 C20            5.1800    -2.8296    -2.8397 C.ar    
  21 O21            3.8578    -4.4970    -1.8748 O.2     
  22 C22            6.0413    -3.7473    -3.4437 C.ar    
  23 C23            7.0998    -3.2972    -4.2053 C.ar    
  24 C24            7.3087    -1.9395    -4.3712 C.ar    
  25 C25            6.4589    -1.0246    -3.7753 C.ar    
  26 C26            5.3932    -1.4613    -3.0158 C.ar    
  27 C27            6.6945     0.4523    -3.9610 C.3     
  28 C28            8.0308    -4.2864    -4.8577 C.3     
  29 F29            6.0011     0.8965    -5.0919 F       
  30 F30            6.2382     1.1428    -2.8331 F       
  31 F31            7.6203    -5.5874    -4.5481 F       
  32 F32            8.0045    -4.1067    -6.2449 F       
  33 F33            8.0630     0.6884    -4.1304 F       
  34 F34            9.3321    -4.0832    -4.3858 F       
  35 H35           -0.9595     1.9036     0.0169 H       
  36 H36           -0.9254    -0.5573     0.0083 H       
  37 H37            3.3499    -0.4887    -0.0323 H       
  38 H38            3.3053     1.9719    -0.0187 H       
  39 H39            1.1533     3.1658     0.0080 H       
  40 H40            2.3447    -5.0290    -0.7926 H       
  41 H41           -1.5226    -4.2663     1.9651 H       
  42 H42           -2.6725    -6.2744     2.8004 H       
  43 H43           -1.8320    -8.5112     2.2147 H       
  44 H44            0.1614    -8.7519     0.7931 H       
  45 H45            1.3201    -6.7546    -0.0560 H       
  46 H46            3.3627    -1.4648    -1.5582 H       
  47 H47            5.8795    -4.8073    -3.3148 H       
  48 H48            8.1391    -1.5924    -4.9681 H       
  49 H49            4.7305    -0.7462    -2.5513 H       
@<TRIPOS>BOND
   1    1    2 ar
   2    1    6 ar
   3    1   35 1
   4    2    3 ar
   5    2   36 1
   6    3    4 ar
   7    3    7 1
   8    4    5 ar
   9    4   37 1
  10    5    6 ar
  11    5   38 1
  12    6   39 1
  13    7    8 1
  14    7   11 1
  15    8    9 2
  16    9   10 1
  17    9   12 1
  18   10   11 2
  19   10   40 1
  20   11   18 1
  21   12   13 ar
  22   12   17 ar
  23   13   14 ar
  24   13   41 1
  25   14   15 ar
  26   14   42 1
  27   15   16 ar
  28   15   43 1
  29   16   17 ar
  30   16   44 1
  31   17   45 1
  32   18   19 am
  33   18   46 1
  34   19   20 1
  35   19   21 2
  36   20   22 ar
  37   20   26 ar
  38   22   23 ar
  39   22   47 1
  40   23   24 ar
  41   23   28 1
  42   24   25 ar
  43   24   48 1
  44   25   26 ar
  45   25   27 1
  46   26   49 1
  47   27   29 1
  48   27   30 1
  49   27   33 1
  50   28   31 1
  51   28   32 1
  52   28   34 1

#	End of record

