#	Name: ASD01230003
#	Creating user name:	WinNT
#	Creation time:	15. 06. 2019 19:11

#	Modifying user name:	WinNT
#	Modification time:	15. 06. 2019 19:11

#	Program:	/corina/corina34_cracker 3.40 0067  02.08.2006

@<TRIPOS>MOLECULE
ASD01230003
  36   37    0    0    0
SMALL
NO_CHARGES


@<TRIPOS>ATOM
   1 S1            -0.2514     1.5425     0.0147 S.o2    
   2 N2            -0.0731    -0.1161    -0.0170 N.am    
   3 C3             1.0271    -0.6291    -0.8585 C.3     
   4 N4             2.2843    -0.0537    -0.3872 N.pl3   
   5 C5             2.4663     1.3079    -0.1603 C.ar    
   6 C6             1.4000     2.1716     0.0529 C.ar    
   7 C7             3.7631     1.8180    -0.1433 C.ar    
   8 C8             3.9784     3.1611     0.0926 C.ar    
   9 C9             2.9084     4.0103     0.3140 C.ar    
  10 C10            1.6186     3.5119     0.2919 C.ar    
  11 S11            3.1888     5.7223     0.6226 S.o2    
  12 O12            4.0857     6.1700    -0.3845 O.2     
  13 O13            1.9113     6.3051     0.8406 O.2     
  14 N14            4.0050     5.8341     2.0591 N.am    
  15 O15           -0.8054     1.9196    -1.2383 O.2     
  16 O16           -0.8434     1.8677     1.2650 O.2     
  17 C17            0.7912    -0.2239    -2.3149 C.3     
  18 S18            2.0516    -0.9933    -3.3684 S.3     
  19 C19            1.6119    -0.4049    -5.0270 C.3     
  20 C20            2.5828    -0.9668    -6.0332 C.2     
  21 C21            2.1643    -1.8018    -6.9517 C.2     
  22 Cl22           5.5975     3.7869     0.1122 Cl      
  23 H23           -0.6554    -0.7066     0.4861 H       
  24 H24            1.0705    -1.7155    -0.7812 H       
  25 H25            3.0308    -0.6510    -0.2237 H       
  26 H26            4.6024     1.1603    -0.3148 H       
  27 H27            0.7818     4.1731     0.4625 H       
  28 H28            4.6195     6.5689     2.2118 H       
  29 H29            3.8686     5.1648     2.7479 H       
  30 H30           -0.1979    -0.5573    -2.6291 H       
  31 H31            0.8547     0.8605    -2.4052 H       
  32 H32            0.6023    -0.7337    -5.2734 H       
  33 H33            1.6549     0.6841    -5.0494 H       
  34 H34            3.6237    -0.6811    -5.9971 H       
  35 H35            2.8602    -2.2045    -7.6728 H       
  36 H36            1.1234    -2.0876    -6.9878 H       
@<TRIPOS>BOND
   1    1    2 am
   2    1    6 1
   3    1   15 2
   4    1   16 2
   5    2    3 1
   6    2   23 1
   7    3    4 1
   8    3   17 1
   9    3   24 1
  10    4    5 1
  11    4   25 1
  12    5    6 ar
  13    5    7 ar
  14    6   10 ar
  15    7    8 ar
  16    7   26 1
  17    8    9 ar
  18    8   22 1
  19    9   10 ar
  20    9   11 1
  21   10   27 1
  22   11   12 2
  23   11   13 2
  24   11   14 am
  25   14   28 1
  26   14   29 1
  27   17   18 1
  28   17   30 1
  29   17   31 1
  30   18   19 1
  31   19   20 1
  32   19   32 1
  33   19   33 1
  34   20   21 2
  35   20   34 1
  36   21   35 1
  37   21   36 1

#	End of record

