#	Name: ASD01880058
#	Creating user name:	WinNT
#	Creation time:	15. 06. 2019 19:39

#	Modifying user name:	WinNT
#	Modification time:	15. 06. 2019 19:39

#	Program:	/corina/corina34_cracker 3.40 0067  02.08.2006

@<TRIPOS>MOLECULE
ASD01880058
  49   51    0    0    0
SMALL
NO_CHARGES


@<TRIPOS>ATOM
   1 C1            -0.0167     1.3776     0.0096 C.ar    
   2 C2             0.0021    -0.0041     0.0020 C.ar    
   3 N3             1.1443    -0.6632    -0.0120 N.ar    
   4 C4             2.3054    -0.0383    -0.0197 C.ar    
   5 C5             2.3651     1.3426    -0.0133 C.ar    
   6 C6             1.1850     2.0698     0.0019 C.ar    
   7 C7             3.6964     2.0488    -0.0217 C.3     
   8 N8             4.1154     2.2846    -1.4056 N.am    
   9 C9             3.6624     3.4151    -2.0894 C.ar    
  10 S10            5.1261     1.2108    -2.1591 S.o2    
  11 C11            4.0114     0.0118    -2.9404 C.3     
  12 C12            4.8188    -0.9201    -3.8462 C.3     
  13 O13            5.7918     1.9885    -3.1445 O.2     
  14 O14            5.8466     0.6025    -1.0960 O.2     
  15 C15            3.2751     4.5470    -1.3835 C.ar    
  16 C16            2.8281     5.6633    -2.0628 C.ar    
  17 C17            2.7659     5.6550    -3.4442 C.ar    
  18 C18            3.1507     4.5298    -4.1501 C.ar    
  19 C19            3.6036     3.4120    -3.4773 C.ar    
  20 C20            2.2772     6.8747    -4.1821 C.3     
  21 C21            3.4576     7.6521    -4.7048 C.ar    
  22 O22            1.4509     6.4706    -5.2757 O.3     
  23 C23            3.9699     8.7067    -3.9724 C.ar    
  24 C24            5.0526     9.4198    -4.4519 C.ar    
  25 C25            5.6234     9.0781    -5.6637 C.ar    
  26 C26            5.1117     8.0230    -6.3957 C.ar    
  27 C27            4.0317     7.3071    -5.9141 C.ar    
  28 H28           -0.9553     1.9117     0.0170 H       
  29 H29           -0.9295    -0.5505     0.0080 H       
  30 H30            3.2203    -0.6121    -0.0308 H       
  31 H31            1.2010     3.1496     0.0072 H       
  32 H32            3.6050     3.0027     0.4978 H       
  33 H33            4.4390     1.4303     0.4824 H       
  34 H34            3.5106    -0.5744    -2.1699 H       
  35 H35            3.2672     0.5416    -3.5351 H       
  36 H36            4.1490    -1.6405    -4.3157 H       
  37 H37            5.3196    -0.3339    -4.6167 H       
  38 H38            5.5630    -1.4499    -3.2516 H       
  39 H39            3.3232     4.5540    -0.3046 H       
  40 H40            2.5266     6.5435    -1.5145 H       
  41 H41            3.1008     4.5267    -5.2290 H       
  42 H42            3.9043     2.5338    -4.0292 H       
  43 H43            1.7001     7.5029    -3.5035 H       
  44 H44            1.9001     5.9077    -5.9210 H       
  45 H45            3.5239     8.9736    -3.0257 H       
  46 H46            5.4524    10.2441    -3.8800 H       
  47 H47            6.4689     9.6357    -6.0387 H       
  48 H48            5.5574     7.7563    -7.3426 H       
  49 H49            3.6319     6.4828    -6.4860 H       
@<TRIPOS>BOND
   1    1    2 ar
   2    1    6 ar
   3    1   28 1
   4    2    3 ar
   5    2   29 1
   6    3    4 ar
   7    4    5 ar
   8    4   30 1
   9    5    6 ar
  10    5    7 1
  11    6   31 1
  12    7    8 1
  13    7   32 1
  14    7   33 1
  15    8    9 1
  16    8   10 am
  17    9   15 ar
  18    9   19 ar
  19   10   11 1
  20   10   13 2
  21   10   14 2
  22   11   12 1
  23   11   34 1
  24   11   35 1
  25   12   36 1
  26   12   37 1
  27   12   38 1
  28   15   16 ar
  29   15   39 1
  30   16   17 ar
  31   16   40 1
  32   17   18 ar
  33   17   20 1
  34   18   19 ar
  35   18   41 1
  36   19   42 1
  37   20   21 1
  38   20   22 1
  39   20   43 1
  40   21   23 ar
  41   21   27 ar
  42   22   44 1
  43   23   24 ar
  44   23   45 1
  45   24   25 ar
  46   24   46 1
  47   25   26 ar
  48   25   47 1
  49   26   27 ar
  50   26   48 1
  51   27   49 1

#	End of record

