#	Name: ASD07300179
#	Creating user name:	WinNT
#	Creation time:	15. 06. 2019 21:09

#	Modifying user name:	WinNT
#	Modification time:	15. 06. 2019 21:09

#	Program:	/corina/corina34_cracker 3.40 0067  02.08.2006

@<TRIPOS>MOLECULE
ASD07300179
  50   53    0    0    0
SMALL
NO_CHARGES


@<TRIPOS>ATOM
   1 C1            -1.7988     1.5162    -0.9785 C.2     
   2 N2            -1.7155     0.1953    -1.2329 N.am    
   3 O3            -2.2405     2.2709    -1.8224 O.2     
   4 O4            -1.3976     1.9991     0.2130 O.3     
   5 C5            -2.2313    -0.3212    -2.4269 C.ar    
   6 C6            -1.6279    -0.0092    -3.6381 C.ar    
   7 C7            -2.1391    -0.5209    -4.8146 C.ar    
   8 C8            -3.2506    -1.3432    -4.7874 C.ar    
   9 C9            -3.8540    -1.6554    -3.5830 C.ar    
  10 C10           -3.3442    -1.1514    -2.4025 C.ar    
  11 C11           -1.0849    -0.6998    -0.2595 C.3     
  12 C12           -1.4571     3.3468     0.3846 C.ar    
  13 C13           -2.6725     3.9582     0.6558 C.ar    
  14 C14           -2.7336     5.3264     0.8303 C.ar    
  15 C15           -1.5783     6.0905     0.7342 C.ar    
  16 C16           -0.3621     5.4780     0.4627 C.ar    
  17 C17           -0.3015     4.1089     0.2941 C.ar    
  18 C18           -2.8146     8.1748     1.1853 C.ar    
  19 C19           -2.5484     9.5345     1.3049 C.ar    
  20 C20           -3.5658    10.4202     1.5825 C.ar    
  21 C21           -4.8527     9.9174     1.7374 C.ar    
  22 C22           -5.0577     8.5580     1.6076 C.ar    
  23 N23           -4.0614     7.7386     1.3413 N.ar    
  24 N24           -1.6397     7.4800     0.9107 N.am    
  25 C25           -1.0652     9.7020     1.0771 C.3     
  26 C26           -0.5715     8.2912     0.8339 C.2     
  27 O27            0.5722     7.9570     0.6075 O.2     
  28 C28           -0.8064    10.5874    -0.1436 C.3     
  29 C29           -0.3943    10.2900     2.3201 C.3     
  30 H30           -0.7600     0.6332    -3.6600 H       
  31 H31           -1.6705    -0.2784    -5.7570 H       
  32 H32           -3.6484    -1.7421    -5.7088 H       
  33 H33           -4.7221    -2.2975    -3.5651 H       
  34 H34           -3.8130    -1.3995    -1.4617 H       
  35 H35           -1.8381    -1.0669     0.4376 H       
  36 H36           -0.6314    -1.5424    -0.7814 H       
  37 H37           -0.3161    -0.1559     0.2894 H       
  38 H38           -3.5712     3.3638     0.7302 H       
  39 H39           -3.6800     5.8023     1.0410 H       
  40 H40            0.5368     6.0718     0.3874 H       
  41 H41            0.6451     3.6318     0.0873 H       
  42 H42           -3.3691    11.4779     1.6776 H       
  43 H43           -5.6780    10.5788     1.9560 H       
  44 H44           -6.0542     8.1589     1.7268 H       
  45 H45           -1.2525    11.5687     0.0182 H       
  46 H46            0.2679    10.6967    -0.2920 H       
  47 H47           -1.2503    10.1276    -1.0266 H       
  48 H48           -0.5488     9.6214     3.1670 H       
  49 H49            0.6742    10.4035     2.1369 H       
  50 H50           -0.8304    11.2640     2.5419 H       
@<TRIPOS>BOND
   1    1    2 am
   2    1    3 2
   3    1    4 1
   4    2    5 1
   5    2   11 1
   6    4   12 1
   7    5    6 ar
   8    5   10 ar
   9    6    7 ar
  10    6   30 1
  11    7    8 ar
  12    7   31 1
  13    8    9 ar
  14    8   32 1
  15    9   10 ar
  16    9   33 1
  17   10   34 1
  18   11   35 1
  19   11   36 1
  20   11   37 1
  21   12   13 ar
  22   12   17 ar
  23   13   14 ar
  24   13   38 1
  25   14   15 ar
  26   14   39 1
  27   15   16 ar
  28   15   24 1
  29   16   17 ar
  30   16   40 1
  31   17   41 1
  32   18   19 ar
  33   18   23 ar
  34   18   24 1
  35   19   20 ar
  36   19   25 1
  37   20   21 ar
  38   20   42 1
  39   21   22 ar
  40   21   43 1
  41   22   23 ar
  42   22   44 1
  43   24   26 am
  44   25   26 1
  45   25   28 1
  46   25   29 1
  47   26   27 2
  48   28   45 1
  49   28   46 1
  50   28   47 1
  51   29   48 1
  52   29   49 1
  53   29   50 1

#	End of record

