#	Name: ASD05313137
#	Creating user name:	WinNT
#	Creation time:	15. 06. 2019 20:58

#	Modifying user name:	WinNT
#	Modification time:	15. 06. 2019 20:58

#	Program:	/corina/corina34_cracker 3.40 0067  02.08.2006

@<TRIPOS>MOLECULE
ASD05313137
  43   47    0    0    0
SMALL
NO_CHARGES


@<TRIPOS>ATOM
   1 C1            -0.0914     0.9057     1.1532 C.2     
   2 C2             0.1412    -0.5485     0.8196 C.3     
   3 N3             0.9089     1.8282     1.2478 N.pl3   
   4 N4             1.5436    -0.6688     0.3779 N.am    
   5 C5             2.5758     0.0482     1.1417 C.3     
   6 C6             2.3291     1.5578     1.0329 C.3     
   7 N7            -0.9887     2.7577     1.6494 N.2     
   8 N8            -1.2114     1.5126     1.4023 N.2     
   9 C9             0.3037     3.0046     1.5692 C.2     
  10 N10           -0.2555     4.9279     3.9405 N.pl3   
  11 C11           -0.1974     6.0086     4.7776 C.2     
  12 C12            0.7069     6.8902     4.3226 C.2     
  13 C13            1.2726     6.3261     3.0943 C.ar    
  14 C14            2.2372     6.7616     2.1820 C.ar    
  15 C15            2.5579     5.9795     1.0944 C.ar    
  16 C16            1.9310     4.7606     0.8942 C.ar    
  17 C17            0.9679     4.3064     1.7894 C.ar    
  18 C18            0.6303     5.0915     2.9027 C.ar    
  19 C19            1.8699    -1.4154    -0.6956 C.2     
  20 O20            3.0148    -1.4243    -1.1046 O.2     
  21 C21            0.8370    -2.2226    -1.3750 C.ar    
  22 C22            0.7526    -2.2237    -2.7705 C.ar    
  23 C23           -0.2147    -2.9807    -3.3994 C.ar    
  24 C24           -1.1009    -3.7383    -2.6498 C.ar    
  25 C25           -1.0214    -3.7401    -1.2653 C.ar    
  26 C26           -0.0558    -2.9925    -0.6263 C.ar    
  27 F27           -2.0461    -4.4776    -3.2704 F       
  28 Cl28           1.8618    -1.2746    -3.7100 Cl      
  29 H29           -0.0246    -1.1642     1.7037 H       
  30 H30           -0.5293    -0.8583     0.0180 H       
  31 H31            2.5296    -0.2535     2.1881 H       
  32 H32            3.5594    -0.1899     0.7367 H       
  33 H33            2.6198     1.9036     0.0409 H       
  34 H34            2.9175     2.0786     1.7883 H       
  35 H35           -0.8333     4.1585     4.0635 H       
  36 H36           -0.7910     6.1339     5.6711 H       
  37 H37            0.9677     7.8354     4.7755 H       
  38 H38            2.7306     7.7109     2.3292 H       
  39 H39            3.3040     6.3197     0.3916 H       
  40 H40            2.1923     4.1580     0.0368 H       
  41 H41           -0.2816    -2.9825    -4.4773 H       
  42 H42           -1.7152    -4.3319    -0.6867 H       
  43 H43            0.0077    -2.9989     0.4518 H       
@<TRIPOS>BOND
   1    1    2 1
   2    1    3 1
   3    1    8 2
   4    2    4 1
   5    2   29 1
   6    2   30 1
   7    3    6 1
   8    3    9 1
   9    4    5 1
  10    4   19 am
  11    5    6 1
  12    5   31 1
  13    5   32 1
  14    6   33 1
  15    6   34 1
  16    7    8 1
  17    7    9 2
  18    9   17 1
  19   10   11 1
  20   10   18 1
  21   10   35 1
  22   11   12 2
  23   11   36 1
  24   12   13 1
  25   12   37 1
  26   13   14 ar
  27   13   18 ar
  28   14   15 ar
  29   14   38 1
  30   15   16 ar
  31   15   39 1
  32   16   17 ar
  33   16   40 1
  34   17   18 ar
  35   19   20 2
  36   19   21 1
  37   21   22 ar
  38   21   26 ar
  39   22   23 ar
  40   22   28 1
  41   23   24 ar
  42   23   41 1
  43   24   25 ar
  44   24   27 1
  45   25   26 ar
  46   25   42 1
  47   26   43 1

#	End of record

