#	Name: ASD03930024
#	Creating user name:	WinNT
#	Creation time:	15. 06. 2019 20:47

#	Modifying user name:	WinNT
#	Modification time:	15. 06. 2019 20:47

#	Program:	/corina/corina34_cracker 3.40 0067  02.08.2006

@<TRIPOS>MOLECULE
ASD03930024
  24   26    0    0    0
SMALL
NO_CHARGES


@<TRIPOS>ATOM
   1 C1            -0.0166     1.3734     0.0096 C.ar    
   2 C2             0.0021    -0.0041     0.0020 C.ar    
   3 C3            -1.1752    -0.7407    -0.0017 C.ar    
   4 C4            -2.3863    -0.1121     0.0029 C.ar    
   5 C5            -2.4132     1.2991     0.0345 C.ar    
   6 C6            -1.2456     2.0448     0.0308 C.ar    
   7 C7            -3.6664    -0.8965    -0.0564 C.3     
   8 N8            -4.7794    -0.2307     0.6260 N.am    
   9 S9            -5.2015     1.3192     0.1591 S.o2    
  10 C10           -3.6200     2.1393     0.0989 C.2     
  11 S11           -1.6457     3.7565     0.0445 S.3     
  12 C12           -3.3690     3.4268     0.0994 C.2     
  13 O13           -5.6830     1.2386    -1.1754 O.2     
  14 O14           -5.9325     1.8961     1.2324 O.2     
  15 C15           -5.5101    -0.9110     1.6982 C.3     
  16 Cl16           1.4704     2.2692     0.0002 Cl      
  17 H17            0.9504    -0.5209    -0.0014 H       
  18 H18           -1.1318    -1.8198    -0.0087 H       
  19 H19           -3.9364    -1.0486    -1.1014 H       
  20 H20           -3.5030    -1.8698     0.4064 H       
  21 H21           -4.1307     4.1918     0.1314 H       
  22 H22           -5.0363    -0.6934     2.6555 H       
  23 H23           -6.5416    -0.5591     1.7150 H       
  24 H24           -5.4959    -1.9865     1.5220 H       
@<TRIPOS>BOND
   1    1    2 ar
   2    1   16 1
   3    1    6 ar
   4    2    3 ar
   5    2   17 1
   6    3    4 ar
   7    3   18 1
   8    4    5 ar
   9    4    7 1
  10    5    6 ar
  11    5   10 1
  12    6   11 1
  13    7    8 1
  14    7   19 1
  15    7   20 1
  16    8    9 am
  17    8   15 1
  18    9   10 1
  19    9   13 2
  20    9   14 2
  21   10   12 2
  22   11   12 1
  23   12   21 1
  24   15   22 1
  25   15   23 1
  26   15   24 1

#	End of record

