#	Name: ASD03930213
#	Creating user name:	WinNT
#	Creation time:	15. 06. 2019 20:47

#	Modifying user name:	WinNT
#	Modification time:	15. 06. 2019 20:47

#	Program:	/corina/corina34_cracker 3.40 0067  02.08.2006

@<TRIPOS>MOLECULE
ASD03930213
  48   50    0    0    0
SMALL
NO_CHARGES


@<TRIPOS>ATOM
   1 S1            -0.0766     4.0288    -0.9978 S.o2    
   2 N2            -0.7570     2.5452    -1.3352 N.am    
   3 C3            -0.4955     1.9157    -2.6258 C.3     
   4 C4             0.9724     1.5770    -2.8363 C.3     
   5 O5             1.7779     2.7611    -2.8745 O.3     
   6 C6             2.3631     3.1142    -1.7020 C.ar    
   7 C7             1.6335     3.6812    -0.6661 C.ar    
   8 C8             3.7225     2.8900    -1.5131 C.ar    
   9 C9             4.3089     3.1897    -0.2996 C.ar    
  10 C10            3.5557     3.7146     0.7401 C.ar    
  11 C11            2.2005     3.9668     0.5478 C.ar    
  12 C12           -1.5404     1.9329    -0.4254 C.2     
  13 O13           -2.0334     0.8513    -0.6778 O.2     
  14 O14           -1.7768     2.5196     0.7632 O.3     
  15 O15            4.1378     3.9820     1.9394 O.3     
  16 C16            3.3389     4.3930     2.9588 C.ar    
  17 C17            2.7469     3.4595     3.7976 C.ar    
  18 C18            1.9355     3.8799     4.8335 C.ar    
  19 C19            1.7130     5.2297     5.0348 C.ar    
  20 C20            2.3012     6.1620     4.2001 C.ar    
  21 C21            3.1181     5.7471     3.1663 C.ar    
  22 O22           -0.1157     4.7812    -2.2026 O.2     
  23 O23           -0.6489     4.4738     0.2244 O.2     
  24 C24           -2.6297     1.8026     1.6942 C.3     
  25 C25           -2.0001     0.4473     2.0226 C.3     
  26 C26           -2.7817     2.6191     2.9791 C.3     
  27 C27           -4.0059     1.5858     1.0618 C.3     
  28 H28           -1.0803     0.9983    -2.6935 H       
  29 H29           -0.8164     2.5925    -3.4177 H       
  30 H30            1.3126     0.9399    -2.0199 H       
  31 H31            1.0834     1.0391    -3.7778 H       
  32 H32            4.3192     2.4814    -2.3152 H       
  33 H33            5.3650     3.0132    -0.1584 H       
  34 H34            1.6031     4.3818     1.3460 H       
  35 H35            2.9202     2.4051     3.6405 H       
  36 H36            1.4743     3.1538     5.4864 H       
  37 H37            1.0782     5.5563     5.8453 H       
  38 H38            2.1252     7.2156     4.3591 H       
  39 H39            3.5811     6.4759     2.5176 H       
  40 H40           -1.0197     0.6018     2.4731 H       
  41 H41           -2.6404    -0.0909     2.7215 H       
  42 H42           -1.8918    -0.1344     1.1072 H       
  43 H43           -3.2302     3.5846     2.7451 H       
  44 H44           -3.4220     2.0809     3.6780 H       
  45 H45           -1.8012     2.7735     3.4296 H       
  46 H46           -3.8976     1.0041     0.1464 H       
  47 H47           -4.6462     1.0476     1.7607 H       
  48 H48           -4.4544     2.5513     0.8279 H       
@<TRIPOS>BOND
   1    1    2 am
   2    1    7 1
   3    1   22 2
   4    1   23 2
   5    2    3 1
   6    2   12 am
   7    3    4 1
   8    3   28 1
   9    3   29 1
  10    4    5 1
  11    4   30 1
  12    4   31 1
  13    5    6 1
  14    6    7 ar
  15    6    8 ar
  16    7   11 ar
  17    8    9 ar
  18    8   32 1
  19    9   10 ar
  20    9   33 1
  21   10   11 ar
  22   10   15 1
  23   11   34 1
  24   12   13 2
  25   12   14 1
  26   14   24 1
  27   15   16 1
  28   16   17 ar
  29   16   21 ar
  30   17   18 ar
  31   17   35 1
  32   18   19 ar
  33   18   36 1
  34   19   20 ar
  35   19   37 1
  36   20   21 ar
  37   20   38 1
  38   21   39 1
  39   24   25 1
  40   24   27 1
  41   24   26 1
  42   25   40 1
  43   25   41 1
  44   25   42 1
  45   26   43 1
  46   26   44 1
  47   26   45 1
  48   27   46 1
  49   27   47 1
  50   27   48 1

#	End of record

