#	Name: ASD03930052
#	Creating user name:	WinNT
#	Creation time:	15. 06. 2019 20:47

#	Modifying user name:	WinNT
#	Modification time:	15. 06. 2019 20:47

#	Program:	/corina/corina34_cracker 3.40 0067  02.08.2006

@<TRIPOS>MOLECULE
ASD03930052
  26   28    0    0    0
SMALL
NO_CHARGES


@<TRIPOS>ATOM
   1 C1             0.0134     1.3709     0.2785 C.ar    
   2 C2             0.0308    -0.0055     0.2630 C.ar    
   3 C3             1.1986    -0.7089    -0.0017 C.ar    
   4 C4             2.3642    -0.0463    -0.2556 C.ar    
   5 C5             2.3485     1.3650    -0.2646 C.ar    
   6 C6             1.1920     2.0770     0.0113 C.ar    
   7 C7             3.6458    -0.7946    -0.4898 C.3     
   8 N8             4.5679    -0.0879    -1.3833 N.am    
   9 S9             5.0422     1.4669    -0.9882 S.o2    
  10 C10            3.4912     2.2404    -0.5717 C.2     
  11 S11            1.5364     3.7994    -0.0566 S.3     
  12 C12            3.2138     3.5200    -0.4926 C.2     
  13 O13            5.8031     1.3817     0.2088 O.2     
  14 O14            5.5087     2.0792    -2.1826 O.2     
  15 C15            5.0659    -0.7322    -2.6011 C.3     
  16 N16            1.1790    -2.1889    -0.0079 N.pl3   
  17 O17            0.2148    -2.7833    -0.4556 O.2     
  18 O18            2.1271    -2.8124     0.4347 O.2     
  19 H19           -0.9030     1.9015     0.4907 H       
  20 H20           -0.8813    -0.5489     0.4609 H       
  21 H21            4.1394    -0.9535     0.4690 H       
  22 H22            3.4104    -1.7656    -0.9255 H       
  23 H23            3.9311     4.3068    -0.6733 H       
  24 H24            4.3910    -0.5151    -3.4291 H       
  25 H25            6.0602    -0.3507    -2.8334 H       
  26 H26            5.1171    -1.8100    -2.4471 H       
@<TRIPOS>BOND
   1    1    2 ar
   2    1    6 ar
   3    1   19 1
   4    2    3 ar
   5    2   20 1
   6    3    4 ar
   7    3   16 1
   8    4    5 ar
   9    4    7 1
  10    5    6 ar
  11    5   10 1
  12    6   11 1
  13    7    8 1
  14    7   21 1
  15    7   22 1
  16    8    9 am
  17    8   15 1
  18    9   10 1
  19    9   13 2
  20    9   14 2
  21   10   12 2
  22   11   12 1
  23   12   23 1
  24   15   24 1
  25   15   25 1
  26   15   26 1
  27   16   17 2
  28   16   18 2

#	End of record

