#	Name: ASD01900883
#	Creating user name:	WinNT
#	Creation time:	15. 06. 2019 19:52

#	Modifying user name:	WinNT
#	Modification time:	15. 06. 2019 19:52

#	Program:	/corina/corina34_cracker 3.40 0067  02.08.2006

@<TRIPOS>MOLECULE
ASD01900883
  63   68    0    0    0
SMALL
NO_CHARGES


@<TRIPOS>ATOM
   1 C1             0.6519     0.2181    -0.7608 C.ar    
   2 C2             0.8795    -1.1177    -1.0166 C.ar    
   3 C3             2.1561    -1.5680    -1.3204 C.ar    
   4 C4             3.2204    -0.6863    -1.3643 C.ar    
   5 C5             3.0090     0.6567    -1.1041 C.ar    
   6 C6             1.7137     1.1186    -0.8098 C.ar    
   7 N7             4.0506     1.5777    -1.1172 N.pl3   
   8 C8             3.7566     2.9735    -1.4609 C.3     
   9 N9             2.5323     3.4138    -0.7911 N.am    
  10 C10            1.5211     2.5557    -0.5503 C.2     
  11 C11            4.9252     3.8596    -1.0194 C.3     
  12 C12            3.5809     3.0950    -2.9773 C.3     
  13 C13            3.3423     4.5623    -3.3414 C.3     
  14 N14            4.4845     5.3705    -2.8962 N.3     
  15 C15            4.6468     5.3051    -1.4383 C.3     
  16 C16            2.4093     4.7506    -0.3923 C.ar    
  17 C17            3.0584     5.1969     0.7512 C.ar    
  18 C18            2.9366     6.5152     1.1439 C.ar    
  19 C19            2.1656     7.3935     0.3966 C.ar    
  20 C20            1.5168     6.9484    -0.7460 C.ar    
  21 C21            1.6427     5.6319    -1.1433 C.ar    
  22 C22            4.3534     6.7617    -3.3494 C.3     
  23 C23            5.4923     7.5795    -2.7968 C.ar    
  24 C24            5.2729     8.4623    -1.7835 C.ar    
  25 C25            6.3153     9.2254    -1.2621 C.ar    
  26 C26            7.5811     9.1115    -1.7494 C.ar    
  27 C27            7.8474     8.2110    -2.7952 C.ar    
  28 C28            6.7867     7.4313    -3.3198 C.ar    
  29 O29            0.4584     2.9645    -0.1227 O.2     
  30 O30            2.0455     8.6912     0.7843 O.3     
  31 C31            1.3244     9.5645    -0.0871 C.3     
  32 F32           -0.0090     9.1485    -0.1655 F       
  33 F33            1.3770    10.8700     0.4130 F       
  34 F34            1.8994     9.5301    -1.3620 F       
  35 Br35           2.4431    -3.4028    -1.6767 Br      
  36 C36            7.0565     6.5253    -4.3629 C.ar    
  37 N37            9.0806     8.0777    -3.2940 N.ar    
  38 C38            9.3342     7.2393    -4.2692 C.ar    
  39 C39            8.3399     6.4340    -4.8211 C.ar    
  40 H40           -0.3442     0.5646    -0.5282 H       
  41 H41            0.0584    -1.8182    -0.9800 H       
  42 H42            4.2118    -1.0438    -1.6000 H       
  43 H43            4.9556     1.3025    -0.9025 H       
  44 H44            5.0318     3.8085     0.0641 H       
  45 H45            5.8438     3.5136    -1.4933 H       
  46 H46            4.4807     2.7374    -3.4778 H       
  47 H47            2.7258     2.4977    -3.2937 H       
  48 H48            3.2310     4.6549    -4.4217 H       
  49 H49            2.4348     4.9151    -2.8514 H       
  50 H50            3.7341     5.6539    -0.9552 H       
  51 H51            5.4817     5.9378    -1.1370 H       
  52 H52            3.6582     4.5131     1.3336 H       
  53 H53            3.4415     6.8624     2.0333 H       
  54 H54            0.9164     7.6326    -1.3271 H       
  55 H55            1.1411     5.2866    -2.0352 H       
  56 H56            4.3788     6.7929    -4.4387 H       
  57 H57            3.4071     7.1713    -2.9962 H       
  58 H58            4.2776     8.5726    -1.3790 H       
  59 H59            6.1158     9.9188    -0.4585 H       
  60 H60            8.3777     9.7111    -1.3343 H       
  61 H61            6.2707     5.9189    -4.7886 H       
  62 H62           10.3435     7.1602    -4.6452 H       
  63 H63            8.5810     5.7485    -5.6201 H       
@<TRIPOS>BOND
   1    1    2 ar
   2    1    6 ar
   3    1   40 1
   4    2    3 ar
   5    2   41 1
   6    3    4 ar
   7    3   35 1
   8    4    5 ar
   9    4   42 1
  10    5    7 1
  11    5    6 ar
  12    6   10 1
  13    7    8 1
  14    7   43 1
  15    8    9 1
  16    8   12 1
  17    8   11 1
  18    9   10 am
  19    9   16 1
  20   10   29 2
  21   11   15 1
  22   11   44 1
  23   11   45 1
  24   12   13 1
  25   12   46 1
  26   12   47 1
  27   13   14 1
  28   13   48 1
  29   13   49 1
  30   14   15 1
  31   14   22 1
  32   15   50 1
  33   15   51 1
  34   16   17 ar
  35   16   21 ar
  36   17   18 ar
  37   17   52 1
  38   18   19 ar
  39   18   53 1
  40   19   20 ar
  41   19   30 1
  42   20   21 ar
  43   20   54 1
  44   21   55 1
  45   22   23 1
  46   22   56 1
  47   22   57 1
  48   23   24 ar
  49   23   28 ar
  50   24   25 ar
  51   24   58 1
  52   25   26 ar
  53   25   59 1
  54   26   27 ar
  55   26   60 1
  56   27   28 ar
  57   27   37 ar
  58   28   36 ar
  59   30   31 1
  60   31   32 1
  61   31   33 1
  62   31   34 1
  63   36   39 ar
  64   36   61 1
  65   37   38 ar
  66   38   39 ar
  67   38   62 1
  68   39   63 1

#	End of record

