#	Name: ASD01940247
#	Creating user name:	WinNT
#	Creation time:	15. 06. 2019 20:12

#	Modifying user name:	WinNT
#	Modification time:	15. 06. 2019 20:12

#	Program:	/corina/corina34_cracker 3.40 0067  02.08.2006

@<TRIPOS>MOLECULE
ASD01940247
  32   33    0    0    0
SMALL
NO_CHARGES


@<TRIPOS>ATOM
   1 F1             1.9010     1.6017     2.2853 F       
   2 C2             1.0625     2.1527     1.3806 C.ar    
   3 C3             1.3874     2.1345     0.0308 C.ar    
   4 C4             0.5189     2.7040    -0.8990 C.ar    
   5 C5            -0.6653     3.2859    -0.4719 C.ar    
   6 C6            -0.9835     3.3015     0.8736 C.ar    
   7 C7            -0.1252     2.7315     1.7984 C.ar    
   8 N8             2.5857     1.5455    -0.3958 N.pl3   
   9 N9             0.8419     2.6889    -2.2624 N.am    
  10 C10            2.6328     0.1757    -0.6685 C.ar    
  11 C11            1.4776    -0.5906    -0.5849 C.ar    
  12 C12            1.5273    -1.9445    -0.8549 C.ar    
  13 C13            2.7257    -2.5376    -1.2084 C.ar    
  14 C14            3.8790    -1.7777    -1.2924 C.ar    
  15 C15            3.8353    -0.4221    -1.0297 C.ar    
  16 Cl16           5.2824     0.5309    -1.1351 Cl      
  17 I17            2.7950    -4.5912    -1.6169 I       
  18 F18           -0.4436     2.7446     3.1113 F       
  19 S19            0.4251     3.9693    -3.2263 S.o2    
  20 C20            1.2752     5.3898    -2.4846 C.3     
  21 O21            0.9909     3.6545    -4.4912 O.2     
  22 O22           -0.9813     4.0885    -3.0620 O.2     
  23 H23           -1.3395     3.7276    -1.1909 H       
  24 H24           -1.9060     3.7559     1.2037 H       
  25 H25            3.3824     2.0888    -0.5017 H       
  26 H26            1.3096     1.9284    -2.6417 H       
  27 H27            0.5414    -0.1285    -0.3086 H       
  28 H28            0.6291    -2.5407    -0.7896 H       
  29 H29            4.8134    -2.2440    -1.5680 H       
  30 H30            2.3506     5.2116    -2.4871 H       
  31 H31            1.0544     6.2875    -3.0620 H       
  32 H32            0.9316     5.5238    -1.4588 H       
@<TRIPOS>BOND
   1    1    2 1
   2    2    3 ar
   3    2    7 ar
   4    3    4 ar
   5    3    8 1
   6    4    5 ar
   7    4    9 1
   8    5    6 ar
   9    5   23 1
  10    6    7 ar
  11    6   24 1
  12    7   18 1
  13    8   10 1
  14    8   25 1
  15    9   19 am
  16    9   26 1
  17   10   11 ar
  18   10   15 ar
  19   11   12 ar
  20   11   27 1
  21   12   13 ar
  22   12   28 1
  23   13   14 ar
  24   13   17 1
  25   14   15 ar
  26   14   29 1
  27   15   16 1
  28   19   20 1
  29   19   21 2
  30   19   22 2
  31   20   30 1
  32   20   31 1
  33   20   32 1

#	End of record

