#	Name: ASD03540452
#	Creating user name:	WinNT
#	Creation time:	15. 06. 2019 20:43

#	Modifying user name:	WinNT
#	Modification time:	15. 06. 2019 20:43

#	Program:	/corina/corina34_cracker 3.40 0067  02.08.2006

@<TRIPOS>MOLECULE
ASD03540452
  55   57    0    0    0
SMALL
NO_CHARGES


@<TRIPOS>ATOM
   1 C1            -0.0179     1.4653     0.0101 C.2     
   2 C2             0.0021    -0.0041     0.0020 C.2     
   3 C3             1.1635    -0.6537    -0.0126 C.2     
   4 C4             1.1839    -2.1606    -0.0208 C.3     
   5 O5             1.0263     2.0872     0.0035 O.2     
   6 O6            -1.1943     2.1233     0.0193 O.3     
   7 N7             4.0792    -3.2650    -2.0131 N.am    
   8 C8             3.2903    -2.8345    -1.0140 C.2     
   9 N9             1.9718    -2.6320    -1.1624 N.am    
  10 C10            1.3579    -2.8552    -2.3448 C.2     
  11 C11            2.1755    -3.3294    -3.4766 C.ar    
  12 C12            1.6182    -3.5820    -4.7237 C.ar    
  13 C13            2.4384    -4.0295    -5.7586 C.ar    
  14 C14            3.8079    -4.2200    -5.5366 C.ar    
  15 C15            4.3556    -3.9713    -4.3099 C.ar    
  16 C16            3.5541    -3.5250    -3.2668 C.ar    
  17 O17            0.1629    -2.6705    -2.4722 O.2     
  18 O18            3.7929    -2.6187     0.0716 O.2     
  19 C19            5.5118    -3.4564    -1.7738 C.3     
  20 C20            1.8623    -4.3033    -7.0902 C.2     
  21 N21            2.6543    -4.7358    -8.0912 N.am    
  22 O22            0.6733    -4.1386    -7.2836 O.2     
  23 C23            2.0826    -5.0075    -9.4124 C.3     
  24 C24            3.1708    -5.4751   -10.3441 C.ar    
  25 C25            3.4594    -6.8234   -10.4468 C.ar    
  26 C26            4.4565    -7.2546   -11.3002 C.ar    
  27 C27            5.1685    -6.3334   -12.0546 C.ar    
  28 C28            4.8771    -4.9811   -11.9497 C.ar    
  29 C29            3.8753    -4.5555   -11.0991 C.ar    
  30 O30            6.1502    -6.7550   -12.8945 O.3     
  31 C31            6.8417    -5.7510   -13.6400 C.3     
  32 C32           -1.1380     3.5742     0.0269 C.3     
  33 H33           -0.9258    -0.5567     0.0079 H       
  34 H34            2.0913    -0.1010    -0.0185 H       
  35 H35            1.6320    -2.5229     0.9044 H       
  36 H36            0.1644    -2.5373    -0.1027 H       
  37 H37            0.5614    -3.4339    -4.8896 H       
  38 H38            4.4371    -4.5671    -6.3428 H       
  39 H39            5.4131    -4.1223    -4.1508 H       
  40 H40            5.7447    -3.2014    -0.7399 H       
  41 H41            5.7753    -4.4976    -1.9594 H       
  42 H42            6.0813    -2.8124    -2.4439 H       
  43 H43            3.6029    -4.8673    -7.9368 H       
  44 H44            1.3205    -5.7820    -9.3262 H       
  45 H45            1.6323    -4.0970    -9.8076 H       
  46 H46            2.9050    -7.5401    -9.8591 H       
  47 H47            4.6817    -8.3078   -11.3798 H       
  48 H48            5.4301    -4.2620   -12.5359 H       
  49 H49            3.6448    -3.5033   -11.0206 H       
  50 H50            6.1322    -5.2105   -14.2666 H       
  51 H51            7.3231    -5.0551   -12.9528 H       
  52 H52            7.5973    -6.2214   -14.2692 H       
  53 H53           -0.6062     3.9125     0.9162 H       
  54 H54           -0.6146     3.9222    -0.8637 H       
  55 H55           -2.1507     3.9771     0.0339 H       
@<TRIPOS>BOND
   1    1    2 1
   2    1    5 2
   3    1    6 1
   4    2    3 2
   5    2   33 1
   6    3    4 1
   7    3   34 1
   8    4    9 1
   9    4   35 1
  10    4   36 1
  11    6   32 1
  12    7    8 am
  13    7   16 1
  14    7   19 1
  15    8    9 am
  16    8   18 2
  17    9   10 am
  18   10   11 1
  19   10   17 2
  20   11   12 ar
  21   11   16 ar
  22   12   13 ar
  23   12   37 1
  24   13   14 ar
  25   13   20 1
  26   14   15 ar
  27   14   38 1
  28   15   16 ar
  29   15   39 1
  30   19   40 1
  31   19   41 1
  32   19   42 1
  33   20   21 am
  34   20   22 2
  35   21   23 1
  36   21   43 1
  37   23   24 1
  38   23   44 1
  39   23   45 1
  40   24   25 ar
  41   24   29 ar
  42   25   26 ar
  43   25   46 1
  44   26   27 ar
  45   26   47 1
  46   27   28 ar
  47   27   30 1
  48   28   29 ar
  49   28   48 1
  50   29   49 1
  51   30   31 1
  52   31   50 1
  53   31   51 1
  54   31   52 1
  55   32   53 1
  56   32   54 1
  57   32   55 1

#	End of record

