#	Name: ASD01200354
#	Creating user name:	WinNT
#	Creation time:	15. 06. 2019 19:09

#	Modifying user name:	WinNT
#	Modification time:	15. 06. 2019 19:09

#	Program:	/corina/corina34_cracker 3.40 0067  02.08.2006

@<TRIPOS>MOLECULE
ASD01200354
  37   39    0    0    0
SMALL
NO_CHARGES


@<TRIPOS>ATOM
   1 C1            -0.6520     0.9952     0.5589 C.ar    
   2 C2            -0.3968    -0.3601     0.4489 C.ar    
   3 C3             0.8760    -0.8081     0.1418 C.ar    
   4 C4             1.8993     0.0952    -0.0567 C.ar    
   5 C5             1.6486     1.4644     0.0528 C.ar    
   6 C6             0.3625     1.9095     0.3627 C.ar    
   7 C7             2.7403     2.4380    -0.1581 C.2     
   8 O8             3.8595     2.0474    -0.4276 O.2     
   9 N9             2.4950     3.7590    -0.0517 N.am    
  10 C10            3.5210     4.6741    -0.2500 C.2     
  11 S11            1.1903    -2.5364     0.0048 S.o2    
  12 N12            1.0690    -2.9310    -1.5990 N.am    
  13 O13            2.5523    -2.7262     0.3628 O.2     
  14 O14            0.1151    -3.1931     0.6620 O.2     
  15 S15            3.3521     6.3722    -0.1465 S.3     
  16 C16            5.0602     6.5758    -0.5271 C.2     
  17 C17            5.5940     5.3644    -0.6949 C.2     
  18 N18            4.7473     4.3646    -0.5349 N.2     
  19 C19           -0.1401    -2.7477    -2.2738 C.ar    
  20 C20           -0.1543    -2.1452    -3.5254 C.ar    
  21 C21           -1.3515    -1.9659    -4.1901 C.ar    
  22 C22           -2.5352    -2.3854    -3.6111 C.ar    
  23 C23           -2.5246    -2.9855    -2.3653 C.ar    
  24 C24           -1.3304    -3.1726    -1.6974 C.ar    
  25 H25           -1.6486     1.3384     0.7944 H       
  26 H26           -1.1944    -1.0716     0.6037 H       
  27 H27            2.8922    -0.2557    -0.2959 H       
  28 H28            0.1618     2.9672     0.4485 H       
  29 H29            1.6019     4.0707     0.1633 H       
  30 H30            1.8377    -3.2895    -2.0697 H       
  31 H31            5.5837     7.5168    -0.6106 H       
  32 H32            6.6355     5.2140    -0.9381 H       
  33 H33            0.7697    -1.8171    -3.9780 H       
  34 H34           -1.3634    -1.4972    -5.1630 H       
  35 H35           -3.4701    -2.2436    -4.1329 H       
  36 H36           -3.4508    -3.3119    -1.9159 H       
  37 H37           -1.3227    -3.6417    -0.7246 H       
@<TRIPOS>BOND
   1    1    2 ar
   2    1    6 ar
   3    1   25 1
   4    2    3 ar
   5    2   26 1
   6    3    4 ar
   7    3   11 1
   8    4    5 ar
   9    4   27 1
  10    5    6 ar
  11    5    7 1
  12    6   28 1
  13    7    8 2
  14    7    9 am
  15    9   10 1
  16    9   29 1
  17   10   15 1
  18   10   18 2
  19   11   12 am
  20   11   13 2
  21   11   14 2
  22   12   19 1
  23   12   30 1
  24   15   16 1
  25   16   17 2
  26   16   31 1
  27   17   18 1
  28   17   32 1
  29   19   20 ar
  30   19   24 ar
  31   20   21 ar
  32   20   33 1
  33   21   22 ar
  34   21   34 1
  35   22   23 ar
  36   22   35 1
  37   23   24 ar
  38   23   36 1
  39   24   37 1

#	End of record

