#	Name: ASD01811341
#	Creating user name:	WinNT
#	Creation time:	15. 06. 2019 19:26

#	Modifying user name:	WinNT
#	Modification time:	15. 06. 2019 19:26

#	Program:	/corina/corina34_cracker 3.40 0067  02.08.2006

@<TRIPOS>MOLECULE
ASD01811341
  70   74    0    0    0
SMALL
NO_CHARGES


@<TRIPOS>ATOM
   1 C1            -0.0179     1.4265     0.1676 C.ar    
   2 C2             0.0023     0.0443     0.0281 C.ar    
   3 C3            -1.1794    -0.6573    -0.1235 C.ar    
   4 C4            -2.3867     0.0105    -0.1369 C.ar    
   5 C5            -2.4178     1.3993     0.0030 C.ar    
   6 C6            -1.2261     2.1063     0.1608 C.ar    
   7 N7             1.1813     2.1321     0.3208 N.am    
   8 C8             1.1932     3.3043     0.9858 C.2     
   9 N9             2.3611     3.9358     1.2174 N.am    
  10 O10            0.1503     3.7921     1.3769 O.2     
  11 C11            2.3741     5.2100     1.9403 C.3     
  12 C12            3.8146     5.7097     2.0671 C.3     
  13 C13            1.3167    -0.6927     0.0417 C.3     
  14 C14           -3.7102     2.1175    -0.0110 C.2     
  15 N15           -4.8117     1.5327     0.5000 N.am    
  16 O16           -3.7791     3.2354    -0.4834 O.2     
  17 C17           -6.1246     2.1827     0.3881 C.3     
  18 C18           -6.7448     2.2852     1.7851 C.3     
  19 C19           -6.7839     0.8953     2.4246 C.3     
  20 C20           -5.3584     0.3572     2.5672 C.3     
  21 C21           -4.7234     0.2303     1.1741 C.3     
  22 C22           -7.4245     0.9868     3.7856 C.ar    
  23 C23           -8.5754     0.2675     4.0547 C.ar    
  24 C24           -9.1668     0.3462     5.2985 C.ar    
  25 C25           -8.6013     1.1542     6.2870 C.ar    
  26 C26           -7.4397     1.8774     6.0085 C.ar    
  27 C27           -6.8559     1.7853     4.7621 C.ar    
  28 C28           -9.2100     1.2411     7.5802 C.1     
  29 N29           -9.6929     1.3100     8.6062 N.1     
  30 C30            1.4310    -1.7278     1.1732 C.3     
  31 C31            2.1252    -2.6478     0.1552 C.3     
  32 C32            1.3697    -1.8757    -0.9394 C.3     
  33 C33            3.8391     7.0504     2.8265 C.3     
  34 C34            4.7457     6.7763     4.0511 C.3     
  35 C35            5.5542     5.5385     3.5860 C.3     
  36 O36            4.5918     4.7720     2.8305 O.3     
  37 H37           -1.1573    -1.7316    -0.2322 H       
  38 H38           -3.3076    -0.5410    -0.2559 H       
  39 H39           -1.2439     3.1807     0.2694 H       
  40 H40            2.0037     1.7774    -0.0516 H       
  41 H41            3.1931     3.5467     0.9054 H       
  42 H42            1.7817     5.9439     1.3937 H       
  43 H43            1.9498     5.0682     2.9342 H       
  44 H44            4.2512     5.8368     1.0765 H       
  45 H45            2.1764    -0.0263    -0.0290 H       
  46 H46           -6.0034     3.1812    -0.0320 H       
  47 H47           -6.7725     1.5890    -0.2567 H       
  48 H48           -6.1433     2.9527     2.4021 H       
  49 H49           -7.7585     2.6776     1.7052 H       
  50 H50           -7.3650     0.2219     1.7945 H       
  51 H51           -4.7700     1.0429     3.1769 H       
  52 H52           -5.3854    -0.6226     3.0441 H       
  53 H53           -5.2582    -0.5234     0.5961 H       
  54 H54           -3.6769    -0.0577     1.2744 H       
  55 H55           -9.0120    -0.3568     3.2891 H       
  56 H56          -10.0653    -0.2155     5.5072 H       
  57 H57           -6.9974     2.5045     6.7684 H       
  58 H58           -5.9575     2.3441     4.5453 H       
  59 H59            2.0800    -1.4119     1.9900 H       
  60 H60            0.4685    -2.1058     1.5180 H       
  61 H61            3.2066    -2.5168     0.1147 H       
  62 H62            1.8272    -3.6930     0.2370 H       
  63 H63            0.3906    -2.2942    -1.1722 H       
  64 H64            1.9694    -1.6794    -1.8282 H       
  65 H65            4.2678     7.8346     2.2025 H       
  66 H66            2.8347     7.3246     3.1492 H       
  67 H67            5.4057     7.6221     4.2436 H       
  68 H68            4.1486     6.5421     4.9325 H       
  69 H69            6.3875     5.8405     2.9515 H       
  70 H70            5.9107     4.9683     4.4439 H       
@<TRIPOS>BOND
   1    1    2 ar
   2    1    7 1
   3    1    6 ar
   4    2    3 ar
   5    2   13 1
   6    3    4 ar
   7    3   37 1
   8    4    5 ar
   9    4   38 1
  10    5    6 ar
  11    5   14 1
  12    6   39 1
  13    7    8 am
  14    7   40 1
  15    8    9 am
  16    8   10 2
  17    9   11 1
  18    9   41 1
  19   11   12 1
  20   11   42 1
  21   11   43 1
  22   12   33 1
  23   12   36 1
  24   12   44 1
  25   13   30 1
  26   13   32 1
  27   13   45 1
  28   14   15 am
  29   14   16 2
  30   15   17 1
  31   15   21 1
  32   17   18 1
  33   17   46 1
  34   17   47 1
  35   18   19 1
  36   18   48 1
  37   18   49 1
  38   19   20 1
  39   19   22 1
  40   19   50 1
  41   20   21 1
  42   20   51 1
  43   20   52 1
  44   21   53 1
  45   21   54 1
  46   22   23 ar
  47   22   27 ar
  48   23   24 ar
  49   23   55 1
  50   24   25 ar
  51   24   56 1
  52   25   26 ar
  53   25   28 1
  54   26   27 ar
  55   26   57 1
  56   27   58 1
  57   28   29 3
  58   30   31 1
  59   30   59 1
  60   30   60 1
  61   31   32 1
  62   31   61 1
  63   31   62 1
  64   32   63 1
  65   32   64 1
  66   33   34 1
  67   33   65 1
  68   33   66 1
  69   34   35 1
  70   34   67 1
  71   34   68 1
  72   35   36 1
  73   35   69 1
  74   35   70 1

#	End of record

