#	Name: ASD01915173
#	Creating user name:	WinNT
#	Creation time:	15. 06. 2019 20:05

#	Modifying user name:	WinNT
#	Modification time:	15. 06. 2019 20:05

#	Program:	/corina/corina34_cracker 3.40 0067  02.08.2006

@<TRIPOS>MOLECULE
ASD01915173
  48   51    0    0    0
SMALL
NO_CHARGES


@<TRIPOS>ATOM
   1 C1            -0.5145     1.5970    -1.3443 C.ar    
   2 C2            -0.5710     0.2172    -1.2766 C.ar    
   3 C3             0.5774    -0.5076    -1.0275 C.ar    
   4 C4             1.7889     0.1495    -0.8443 C.ar    
   5 C5             1.8454     1.5330    -0.9156 C.ar    
   6 C6             0.6887     2.2521    -1.1647 C.ar    
   7 N7             2.9395    -0.6027    -0.5836 N.am    
   8 C8             4.2525     0.0488    -0.6851 C.3     
   9 C9             4.1556     1.4113     0.0136 C.3     
  10 C10            3.1413     2.2779    -0.7326 C.3     
  11 C11            5.2968    -0.7996    -0.0064 C.2     
  12 O12            5.2564    -0.9660     1.1943 O.2     
  13 N13            6.2758    -1.3733    -0.7337 N.am    
  14 C14            7.3074    -2.0686    -0.0931 C.ar    
  15 C15            7.9598    -3.1040    -0.7486 C.ar    
  16 C16            8.9790    -3.7886    -0.1130 C.ar    
  17 C17            9.3479    -3.4427     1.1750 C.ar    
  18 C18            8.6990    -2.4120     1.8298 C.ar    
  19 C19            7.6844    -1.7205     1.1976 C.ar    
  20 Cl20           9.7959    -5.0836    -0.9311 Cl      
  21 S21            2.8233    -2.2012    -0.1670 S.o2    
  22 O22            2.0626    -2.8283    -1.1904 O.2     
  23 O23            4.1329    -2.6180     0.1941 O.2     
  24 C24            1.8511    -2.2885     1.3000 C.ar    
  25 C25            0.6331    -2.9407     1.2841 C.ar    
  26 C26           -0.1302    -3.0089     2.4350 C.ar    
  27 C27            0.3241    -2.4250     3.6025 C.ar    
  28 C28            1.5425    -1.7724     3.6209 C.ar    
  29 C29            2.3102    -1.7084     2.4707 C.ar    
  30 F30            3.5014    -1.0712     2.4875 F       
  31 H31           -1.4122     2.1639    -1.5423 H       
  32 H32           -1.5124    -0.2930    -1.4182 H       
  33 H33            0.5346    -1.5854    -0.9745 H       
  34 H34            0.7272     3.3301    -1.2190 H       
  35 H35            4.5146     0.1895    -1.7337 H       
  36 H36            3.8282     1.2710     1.0438 H       
  37 H37            5.1307     1.8981     0.0015 H       
  38 H38            3.5448     2.5445    -1.7094 H       
  39 H39            2.9562     3.1881    -0.1620 H       
  40 H40            6.2652    -1.3042    -1.7012 H       
  41 H41            7.6714    -3.3745    -1.7536 H       
  42 H42           10.1441    -3.9789     1.6700 H       
  43 H43            8.9887    -2.1447     2.8353 H       
  44 H44            7.1784    -0.9154     1.7097 H       
  45 H45            0.2769    -3.3970     0.3724 H       
  46 H46           -1.0823    -3.5186     2.4216 H       
  47 H47           -0.2733    -2.4783     4.5007 H       
  48 H48            1.8971    -1.3159     4.5332 H       
@<TRIPOS>BOND
   1    1    2 ar
   2    1    6 ar
   3    1   31 1
   4    2    3 ar
   5    2   32 1
   6    3    4 ar
   7    3   33 1
   8    4    5 ar
   9    4    7 1
  10    5    6 ar
  11    5   10 1
  12    6   34 1
  13    7    8 1
  14    7   21 am
  15    8    9 1
  16    8   11 1
  17    8   35 1
  18    9   10 1
  19    9   36 1
  20    9   37 1
  21   10   38 1
  22   10   39 1
  23   11   12 2
  24   11   13 am
  25   13   14 1
  26   13   40 1
  27   14   15 ar
  28   14   19 ar
  29   15   16 ar
  30   15   41 1
  31   16   17 ar
  32   16   20 1
  33   17   18 ar
  34   17   42 1
  35   18   19 ar
  36   18   43 1
  37   19   44 1
  38   21   22 2
  39   21   23 2
  40   21   24 1
  41   24   25 ar
  42   24   29 ar
  43   25   26 ar
  44   25   45 1
  45   26   27 ar
  46   26   46 1
  47   27   28 ar
  48   27   47 1
  49   28   29 ar
  50   28   48 1
  51   29   30 1

#	End of record

