#	Name: ASD01881183
#	Creating user name:	WinNT
#	Creation time:	15. 06. 2019 19:42

#	Modifying user name:	WinNT
#	Modification time:	15. 06. 2019 19:42

#	Program:	/corina/corina34_cracker 3.40 0067  02.08.2006

@<TRIPOS>MOLECULE
ASD01881183
  64   67    0    0    0
SMALL
NO_CHARGES


@<TRIPOS>ATOM
   1 Cl1            7.7217     4.6513     2.1536 Cl      
   2 N2            -0.0004     1.3082    -0.2105 N.ar    
   3 C3             0.0283    -0.0087    -0.2353 C.ar    
   4 N4             1.1426    -0.6836    -0.0356 N.ar    
   5 C5             2.2870    -0.0578     0.1999 C.ar    
   6 C6             2.3053     1.3228     0.2353 C.ar    
   7 C7             1.1074     2.0071     0.0196 C.ar    
   8 C8             3.5858     2.0718     0.5000 C.3     
   9 O9             4.3100     2.2242    -0.7225 O.3     
  10 C10            5.4954     2.8818    -0.6586 C.ar    
  11 C11            6.2516     3.0651    -1.8127 C.ar    
  12 C12            7.4501     3.7306    -1.7479 C.ar    
  13 C13            7.9191     4.2275    -0.5270 C.ar    
  14 C14            7.1553     4.0415     0.6301 C.ar    
  15 C15            5.9497     3.3760     0.5574 C.ar    
  16 C16            8.4883     4.0914    -2.7811 C.3     
  17 N17            9.5475     4.8101    -2.0635 N.am    
  18 C18            9.2146     4.8861    -0.7636 C.2     
  19 O19            9.8879     5.4223     0.0952 O.2     
  20 N20            1.0736     3.3918     0.0446 N.3     
  21 C21           -0.1736     3.8773     0.6515 C.3     
  22 C22           -0.1374     5.4052     0.7326 C.3     
  23 N23            0.0396     5.9607    -0.6164 N.3     
  24 C24            1.2868     5.4752    -1.2233 C.3     
  25 C25            1.2506     3.9473    -1.3044 C.3     
  26 C26            0.0038     7.4291    -0.5900 C.3     
  27 C27            4.2552    -1.0769    -0.9122 C.3     
  28 C28            3.5530    -0.8432     0.4269 C.3     
  29 C29           -1.4077    -0.9876    -2.0042 C.3     
  30 C30           -1.2486    -0.7645    -0.4989 C.3     
  31 C31           10.5114     6.7934    -3.1212 C.3     
  32 C32           10.7668     5.3555    -2.6652 C.3     
  33 H33            3.3537     3.0549     0.9097 H       
  34 H34            4.1919     1.5144     1.2142 H       
  35 H35            5.8956     2.6837    -2.7583 H       
  36 H36            5.3599     3.2323     1.4507 H       
  37 H37            8.8919     3.1879    -3.2382 H       
  38 H38            8.0499     4.7344    -3.5443 H       
  39 H39           -1.0208     3.5656     0.0405 H       
  40 H40           -0.2758     3.4623     1.6542 H       
  41 H41           -1.0735     5.7693     1.1558 H       
  42 H42            0.6936     5.7162     1.3658 H       
  43 H43            1.3890     5.8903    -2.2260 H       
  44 H44            2.1340     5.7870    -0.6123 H       
  45 H45            2.1868     3.5833    -1.7277 H       
  46 H46            0.4196     3.6364    -1.9376 H       
  47 H47            0.8049     7.8006     0.0489 H       
  48 H48            0.1371     7.8140    -1.6010 H       
  49 H49           -0.9574     7.7620    -0.1982 H       
  50 H50            4.4999    -0.1168    -1.3665 H       
  51 H51            5.1709    -1.6450    -0.7480 H       
  52 H52            3.5953    -1.6353    -1.5760 H       
  53 H53            4.2130    -0.2848     1.0907 H       
  54 H54            3.3084    -1.8033     0.8813 H       
  55 H55           -0.5609    -1.5635    -2.3776 H       
  56 H56           -2.3312    -1.5342    -2.1948 H       
  57 H57           -1.4442    -0.0241    -2.5124 H       
  58 H58           -1.2120    -1.7280     0.0094 H       
  59 H59           -2.0953    -0.1886    -0.1255 H       
  60 H60            9.7072     6.8038    -3.8569 H       
  61 H61           10.2264     7.4016    -2.2627 H       
  62 H62           11.4187     7.1992    -3.5688 H       
  63 H63           11.5710     5.3450    -1.9295 H       
  64 H64           11.0518     4.7472    -3.5236 H       
@<TRIPOS>BOND
   1    1   14 1
   2    2    3 ar
   3    2    7 ar
   4    3    4 ar
   5    3   30 1
   6    4    5 ar
   7    5    6 ar
   8    5   28 1
   9    6    7 ar
  10    6    8 1
  11    7   20 1
  12    8    9 1
  13    8   33 1
  14    8   34 1
  15    9   10 1
  16   10   11 ar
  17   10   15 ar
  18   11   12 ar
  19   11   35 1
  20   12   13 ar
  21   12   16 1
  22   13   14 ar
  23   13   18 1
  24   14   15 ar
  25   15   36 1
  26   16   17 1
  27   16   37 1
  28   16   38 1
  29   17   18 am
  30   17   32 1
  31   18   19 2
  32   20   21 1
  33   20   25 1
  34   21   22 1
  35   21   39 1
  36   21   40 1
  37   22   23 1
  38   22   41 1
  39   22   42 1
  40   23   24 1
  41   23   26 1
  42   24   25 1
  43   24   43 1
  44   24   44 1
  45   25   45 1
  46   25   46 1
  47   26   47 1
  48   26   48 1
  49   26   49 1
  50   27   28 1
  51   27   50 1
  52   27   51 1
  53   27   52 1
  54   28   53 1
  55   28   54 1
  56   29   30 1
  57   29   55 1
  58   29   56 1
  59   29   57 1
  60   30   58 1
  61   30   59 1
  62   31   32 1
  63   31   60 1
  64   31   61 1
  65   31   62 1
  66   32   63 1
  67   32   64 1

#	End of record

