#	Name: ASD00431493
#	Creating user name:	WinNT
#	Creation time:	15. 06. 2019 18:35

#	Modifying user name:	WinNT
#	Modification time:	15. 06. 2019 18:35

#	Program:	/corina/corina34_cracker 3.40 0067  02.08.2006

@<TRIPOS>MOLECULE
ASD00431493
  27   28    0    0    0
SMALL
NO_CHARGES


@<TRIPOS>ATOM
   1 C1            -0.0162     1.3410     0.0094 C.2     
   2 N2             0.0021    -0.0041     0.0020 N.am    
   3 C3             1.2637    -0.4708    -0.0125 C.2     
   4 C4             2.1916     0.6799    -0.0152 C.ar    
   5 C5             3.5709     0.8108    -0.0273 C.ar    
   6 C6             4.1413     2.0742    -0.0256 C.ar    
   7 C7             3.3438     3.2031    -0.0119 C.ar    
   8 C8             1.9626     3.0875     0.0003 C.ar    
   9 C9             1.3783     1.8310    -0.0013 C.ar    
  10 O10           -1.0118     2.0364     0.0181 O.2     
  11 O11            1.5863    -1.6416    -0.0213 O.2     
  12 C12           -1.1944    -0.8494     0.0093 C.3     
  13 C13           -1.2068    -1.6928    -1.1970 C.1     
  14 C14           -1.2166    -2.3654    -2.1592 C.1     
  15 C15           -1.2289    -3.2088    -3.3655 C.3     
  16 C16           -1.1825    -1.7394     1.2538 C.3     
  17 H17            4.1990    -0.0677    -0.0376 H       
  18 H18            5.2164     2.1772    -0.0346 H       
  19 H19            3.8001     4.1820    -0.0103 H       
  20 H20            1.3444     3.9730     0.0113 H       
  21 H21           -2.0841    -0.2197     0.0215 H       
  22 H22           -2.1191    -3.8378    -3.3601 H       
  23 H23           -1.2374    -2.5747    -4.2521 H       
  24 H24           -0.3393    -3.8385    -3.3777 H       
  25 H25           -1.1733    -1.1149     2.1471 H       
  26 H26           -2.0727    -2.3683     1.2592 H       
  27 H27           -0.2928    -2.3691     1.2416 H       
@<TRIPOS>BOND
   1    1    2 am
   2    1    9 1
   3    1   10 2
   4    2    3 am
   5    2   12 1
   6    3    4 1
   7    3   11 2
   8    4    5 ar
   9    4    9 ar
  10    5    6 ar
  11    5   17 1
  12    6    7 ar
  13    6   18 1
  14    7    8 ar
  15    7   19 1
  16    8    9 ar
  17    8   20 1
  18   12   13 1
  19   12   16 1
  20   12   21 1
  21   13   14 3
  22   14   15 1
  23   15   22 1
  24   15   23 1
  25   15   24 1
  26   16   25 1
  27   16   26 1
  28   16   27 1

#	End of record

