#	Name: ASD01940569
#	Creating user name:	WinNT
#	Creation time:	15. 06. 2019 20:12

#	Modifying user name:	WinNT
#	Modification time:	15. 06. 2019 20:12

#	Program:	/corina/corina34_cracker 3.40 0067  02.08.2006

@<TRIPOS>MOLECULE
ASD01940569
  81   87    0    0    0
SMALL
NO_CHARGES


@<TRIPOS>ATOM
   1 C1             0.0888     1.4755    -0.5091 C.ar    
   2 C2             0.4276     0.6428     0.5473 C.ar    
   3 C3             1.6497    -0.0149     0.5442 C.ar    
   4 C4             2.5296     0.1625    -0.5161 C.ar    
   5 C5             2.1889     0.9928    -1.5668 C.ar    
   6 C6             0.9732     1.6487    -1.5666 C.ar    
   7 N7            -1.1459     2.1365    -0.5126 N.am    
   8 C8            -1.1948     3.4819    -0.1920 C.2     
   9 C9            -2.4432     4.1486    -0.1964 C.2     
  10 C10           -3.6493     3.3675    -0.5466 C.2     
  11 N11           -3.4785     2.0093    -0.8535 N.am    
  12 C12           -2.2564     1.4527    -0.8322 C.2     
  13 C13           -0.0567     4.1962     0.1328 C.2     
  14 C14           -0.1688     5.5528     0.4472 C.2     
  15 N15           -1.3636     6.1699     0.4380 N.am    
  16 C16           -2.5067     5.4933     0.1220 C.2     
  17 N17           -3.7156     6.1459     0.1194 N.pl3   
  18 C18           -1.4402     7.5939     0.7734 C.3     
  19 O19            0.8338     6.1881     0.7353 O.2     
  20 C20            1.2896     3.5191     0.1482 C.3     
  21 C21           -4.8585     3.9351    -0.5693 C.2     
  22 C22           -4.5923     1.2277    -1.1910 C.ar    
  23 N23            1.9953    -0.8549     1.6076 N.am    
  24 C24            1.5993    -0.5540     2.8602 C.2     
  25 C25            1.8633    -1.4982     3.9651 C.ar    
  26 O26            1.0249     0.4945     3.0808 O.2     
  27 C27           -4.4976     6.1748     1.2794 C.ar    
  28 C28           -4.0098     5.6332     2.4611 C.ar    
  29 C29           -4.7841     5.6632     3.6047 C.ar    
  30 C30           -6.0445     6.2314     3.5745 C.ar    
  31 C31           -6.5349     6.7721     2.4002 C.ar    
  32 C32           -5.7630     6.7513     1.2529 C.ar    
  33 F33           -6.2398     7.2846     0.1068 F       
  34 O34           -2.1515     0.2737    -1.1099 O.2     
  35 C35           -6.8858     6.2608     4.8245 C.3     
  36 C36            1.4539    -1.1883     5.2637 C.ar    
  37 C37            1.7035    -2.0758     6.2947 C.ar    
  38 C38            2.3613    -3.2737     6.0383 C.ar    
  39 C39            2.7691    -3.5832     4.7494 C.ar    
  40 C40            2.5178    -2.7054     3.7129 C.ar    
  41 C41           -5.2971     1.4903    -2.3584 C.ar    
  42 C42           -6.3938     0.7200    -2.6907 C.ar    
  43 C43           -6.7919    -0.3163    -1.8588 C.ar    
  44 C44           -6.0883    -0.5794    -0.6921 C.ar    
  45 C45           -4.9877     0.1873    -0.3613 C.ar    
  46 F46            2.6041    -4.1384     7.0476 F       
  47 F47            3.4082    -4.7484     4.5060 F       
  48 O48            1.3059    -1.7764     7.5600 O.3     
  49 O49           -7.8723    -1.0741    -2.1865 O.3     
  50 C50           -7.3131     7.6302     5.3563 C.3     
  51 C51           -8.3403     6.7152     4.6865 C.3     
  52 I52           -6.6906    -2.1441     0.5640 I       
  53 H53           -0.2581     0.5069     1.3705 H       
  54 H54            3.4809    -0.3487    -0.5190 H       
  55 H55            2.8746     1.1291    -2.3900 H       
  56 H56            0.7099     2.2970    -2.3893 H       
  57 H57           -4.0271     6.5867    -0.6866 H       
  58 H58           -0.4568     7.9476     1.0831 H       
  59 H59           -1.7699     8.1558    -0.1004 H       
  60 H60           -2.1510     7.7377     1.5872 H       
  61 H61            1.6991     3.5018    -0.8618 H       
  62 H62            1.9648     4.0678     0.8048 H       
  63 H63            1.1785     2.4979     0.5127 H       
  64 H64           -4.9790     4.9621    -0.2575 H       
  65 H65           -5.7156     3.3670    -0.8995 H       
  66 H66            2.5199    -1.6542     1.4436 H       
  67 H67           -3.0260     5.1885     2.4862 H       
  68 H68           -4.4046     5.2419     4.5239 H       
  69 H69           -7.5198     7.2148     2.3799 H       
  70 H70           -6.6687     5.4822     5.5558 H       
  71 H71            0.9437    -0.2574     5.4626 H       
  72 H72            2.8319    -2.9504     2.7090 H       
  73 H73           -4.9877     2.2972    -3.0061 H       
  74 H74           -6.9421     0.9245    -3.5984 H       
  75 H75           -4.4373    -0.0202     0.5445 H       
  76 H76            0.4146    -2.0834     7.7752 H       
  77 H77           -7.6602    -1.8499    -2.7235 H       
  78 H78           -7.3775     7.7525     6.4375 H       
  79 H79           -6.9857     8.5099     4.8022 H       
  80 H80           -8.6886     6.9929     3.6917 H       
  81 H81           -9.0803     6.2355     5.3271 H       
@<TRIPOS>BOND
   1    1    2 ar
   2    1    6 ar
   3    1    7 1
   4    2    3 ar
   5    2   53 1
   6    3    4 ar
   7    3   23 1
   8    4    5 ar
   9    4   54 1
  10    5    6 ar
  11    5   55 1
  12    6   56 1
  13    7    8 1
  14    7   12 am
  15    8   13 2
  16    8    9 1
  17    9   10 1
  18    9   16 2
  19   10   11 1
  20   10   21 2
  21   11   12 am
  22   11   22 1
  23   12   34 2
  24   13   14 1
  25   13   20 1
  26   14   15 am
  27   14   19 2
  28   15   16 1
  29   15   18 1
  30   16   17 1
  31   17   27 1
  32   17   57 1
  33   18   58 1
  34   18   59 1
  35   18   60 1
  36   20   61 1
  37   20   62 1
  38   20   63 1
  39   21   64 1
  40   21   65 1
  41   22   41 ar
  42   22   45 ar
  43   23   24 am
  44   23   66 1
  45   24   25 1
  46   24   26 2
  47   25   36 ar
  48   25   40 ar
  49   27   28 ar
  50   27   32 ar
  51   28   29 ar
  52   28   67 1
  53   29   30 ar
  54   29   68 1
  55   30   31 ar
  56   30   35 1
  57   31   32 ar
  58   31   69 1
  59   32   33 1
  60   35   50 1
  61   35   51 1
  62   35   70 1
  63   36   37 ar
  64   36   71 1
  65   37   38 ar
  66   37   48 1
  67   38   39 ar
  68   38   46 1
  69   39   40 ar
  70   39   47 1
  71   40   72 1
  72   41   42 ar
  73   41   73 1
  74   42   43 ar
  75   42   74 1
  76   43   44 ar
  77   43   49 1
  78   44   45 ar
  79   44   52 1
  80   45   75 1
  81   48   76 1
  82   49   77 1
  83   50   51 1
  84   50   78 1
  85   50   79 1
  86   51   80 1
  87   51   81 1

#	End of record

