#	Name: ASD01230228
#	Creating user name:	WinNT
#	Creation time:	15. 06. 2019 19:12

#	Modifying user name:	WinNT
#	Modification time:	15. 06. 2019 19:12

#	Program:	/corina/corina34_cracker 3.40 0067  02.08.2006

@<TRIPOS>MOLECULE
ASD01230228
  22   23    0    0    0
SMALL
NO_CHARGES


@<TRIPOS>ATOM
   1 O1            -0.0164     1.3554     0.0095 O.3     
   2 C2             0.0021    -0.0041     0.0020 C.ar    
   3 C3             1.1523    -0.6980    -0.3668 C.ar    
   4 O4             2.2843    -0.0304    -0.7225 O.3     
   5 C5             2.1350     1.3518    -1.0644 C.3     
   6 C6             1.2531     2.0171     0.0009 C.3     
   7 C7             1.1525    -2.0804    -0.3731 C.ar    
   8 C8            -0.0003    -2.7799    -0.0074 C.ar    
   9 C9            -1.1496    -2.0782     0.3636 C.ar    
  10 C10           -1.1438    -0.7006     0.3668 C.ar    
  11 C11           -0.0039    -4.2559    -0.0136 C.2     
  12 O12            0.9975    -4.8649    -0.3372 O.2     
  13 N13           -1.1171    -4.9286     0.3396 N.am    
  14 H14            3.1127     1.8332    -1.0853 H       
  15 H15            1.6604     1.4396    -2.0418 H       
  16 H16            1.1165     3.0711    -0.2408 H       
  17 H17            1.7238     1.9219     0.9794 H       
  18 H18            2.0431    -2.6194    -0.6607 H       
  19 H19           -2.0425    -2.6154     0.6474 H       
  20 H20           -2.0334    -0.1598     0.6540 H       
  21 H21           -1.9160    -4.4428     0.5978 H       
  22 H22           -1.1194    -5.8986     0.3355 H       
@<TRIPOS>BOND
   1    1    2 1
   2    1    6 1
   3    2    3 ar
   4    2   10 ar
   5    3    4 1
   6    3    7 ar
   7    4    5 1
   8    5    6 1
   9    5   14 1
  10    5   15 1
  11    6   16 1
  12    6   17 1
  13    7    8 ar
  14    7   18 1
  15    8    9 ar
  16    8   11 1
  17    9   10 ar
  18    9   19 1
  19   10   20 1
  20   11   12 2
  21   11   13 am
  22   13   21 1
  23   13   22 1

#	End of record

