#	Name: ASD01883347
#	Creating user name:	WinNT
#	Creation time:	15. 06. 2019 19:46

#	Modifying user name:	WinNT
#	Modification time:	15. 06. 2019 19:46

#	Program:	/corina/corina34_cracker 3.40 0067  02.08.2006

@<TRIPOS>MOLECULE
ASD01883347
  51   53    0    0    0
SMALL
NO_CHARGES


@<TRIPOS>ATOM
   1 N1            -0.1114     1.3828    -0.9306 N.am    
   2 C2            -0.1746     0.0682    -1.2127 C.2     
   3 C3            -1.3373    -0.6686    -0.8850 C.2     
   4 C4            -2.4079    -0.0003    -0.2665 C.2     
   5 C5            -2.2816     1.3753     0.0028 C.2     
   6 C6            -1.1451     2.0263    -0.3275 C.2     
   7 O7             0.7687    -0.4869    -1.7502 O.2     
   8 C8            -1.4217    -2.0677    -1.1784 C.1     
   9 N9            -1.4887    -3.1776    -1.4111 N.1     
  10 N10           -3.5585    -0.6784     0.0693 N.pl3   
  11 C11            1.0985     2.1336    -1.2753 C.3     
  12 C12            0.9617     2.6996    -2.6902 C.3     
  13 C13           -3.6107    -2.0716    -0.0533 C.ar    
  14 C14            2.2252     3.4836    -3.0502 C.3     
  15 C15            2.1422     3.9439    -4.5069 C.3     
  16 C16            2.3458     4.7044    -2.1357 C.3     
  17 C17           -2.8568    -2.8724     0.7949 C.ar    
  18 C18           -2.9088    -4.2468     0.6734 C.ar    
  19 C19           -3.7139    -4.8279    -0.2957 C.ar    
  20 C20           -4.4674    -4.0286    -1.1434 C.ar    
  21 C21           -4.4209    -2.6542    -1.0193 C.ar    
  22 O22           -3.7643    -6.1813    -0.4151 O.3     
  23 C23           -4.3250    -6.8907     0.5991 C.ar    
  24 C24           -4.9352    -6.2295     1.6555 C.ar    
  25 C25           -5.5044    -6.9531     2.6853 C.ar    
  26 C26           -5.4661    -8.3351     2.6644 C.ar    
  27 C27           -4.8586    -8.9965     1.6130 C.ar    
  28 C28           -4.2933    -8.2778     0.5775 C.ar    
  29 H29           -3.0915     1.9093     0.4774 H       
  30 H30           -1.0595     3.0819    -0.1157 H       
  31 H31           -4.3328    -0.1905     0.3907 H       
  32 H32            1.2321     2.9520    -0.5679 H       
  33 H33            1.9624     1.4705    -1.2312 H       
  34 H34            0.8280     1.8811    -3.3976 H       
  35 H35            0.0977     3.3627    -2.7343 H       
  36 H36            3.0987     2.8447    -2.9202 H       
  37 H37            1.2687     4.5828    -4.6369 H       
  38 H38            3.0423     4.5024    -4.7634 H       
  39 H39            2.0563     3.0742    -5.1584 H       
  40 H40            2.4050     4.3765    -1.0979 H       
  41 H41            3.2460     5.2630    -2.3922 H       
  42 H42            1.4723     5.3434    -2.2657 H       
  43 H43           -2.2298    -2.4202     1.5490 H       
  44 H44           -2.3223    -4.8696     1.3326 H       
  45 H45           -5.0939    -4.4816    -1.8975 H       
  46 H46           -5.0076    -2.0321    -1.6790 H       
  47 H47           -4.9648    -5.1500     1.6726 H       
  48 H48           -5.9795    -6.4389     3.5077 H       
  49 H49           -5.9110    -8.8990     3.4709 H       
  50 H50           -4.8297   -10.0760     1.5992 H       
  51 H51           -3.8190    -8.7949    -0.2435 H       
@<TRIPOS>BOND
   1    1    2 am
   2    1   11 1
   3    1    6 1
   4    2    3 1
   5    2    7 2
   6    3    4 2
   7    3    8 1
   8    4    5 1
   9    4   10 1
  10    5    6 2
  11    5   29 1
  12    6   30 1
  13    8    9 3
  14   10   13 1
  15   10   31 1
  16   11   12 1
  17   11   32 1
  18   11   33 1
  19   12   14 1
  20   12   34 1
  21   12   35 1
  22   13   17 ar
  23   13   21 ar
  24   14   15 1
  25   14   16 1
  26   14   36 1
  27   15   37 1
  28   15   38 1
  29   15   39 1
  30   16   40 1
  31   16   41 1
  32   16   42 1
  33   17   18 ar
  34   17   43 1
  35   18   19 ar
  36   18   44 1
  37   19   20 ar
  38   19   22 1
  39   20   21 ar
  40   20   45 1
  41   21   46 1
  42   22   23 1
  43   23   24 ar
  44   23   28 ar
  45   24   25 ar
  46   24   47 1
  47   25   26 ar
  48   25   48 1
  49   26   27 ar
  50   26   49 1
  51   27   28 ar
  52   27   50 1
  53   28   51 1

#	End of record

