#	Name: ASD01209163
#	Creating user name:	WinNT
#	Creation time:	15. 06. 2019 19:11

#	Modifying user name:	WinNT
#	Modification time:	15. 06. 2019 19:11

#	Program:	/corina/corina34_cracker 3.40 0067  02.08.2006

@<TRIPOS>MOLECULE
ASD01209163
  70   72    0    0    0
SMALL
NO_CHARGES


@<TRIPOS>ATOM
   1 O1            -0.0472     1.4626    -0.0050 O.3     
   2 O2             2.1134     2.1022     1.3496 O.3     
   3 C3             8.5153     9.3204     2.7629 C.ar    
   4 C4             8.1972     9.1774     4.1055 C.ar    
   5 C5             7.0738     8.4559     4.4834 C.ar    
   6 C6             6.2647     7.8759     3.5207 C.ar    
   7 C7             6.5811     8.0172     2.1689 C.ar    
   8 C8             7.7086     8.7480     1.7931 C.ar    
   9 O9             6.7672     8.3181     5.8003 O.3     
  10 C10            5.7210     7.3990     1.1378 C.2     
  11 N11            4.6294     6.6977     1.5027 N.am    
  12 O12            5.9982     7.5232    -0.0393 O.2     
  13 C13            3.8213     6.1168     0.5339 C.2     
  14 P14            1.2931     2.3545    -0.0126 P.3     
  15 O15            2.1320     1.9744    -1.1712 O.2     
  16 C16            0.8487     4.1181    -0.1367 C.3     
  17 N17            2.7524     5.4243     0.7761 N.2     
  18 S18            4.0872     6.2171    -1.1520 S.3     
  19 C19            2.6468     5.2467    -1.4476 C.2     
  20 C20            2.1024     4.9441    -0.2675 C.2     
  21 C21           -0.0314     0.0337    -0.0213 C.3     
  22 C22           -1.4680    -0.4924    -0.0082 C.3     
  23 C23            2.6931     0.8403     1.6867 C.3     
  24 C24            3.3963     0.9477     3.0413 C.3     
  25 O25            9.6170    10.0278     2.3983 O.3     
  26 C26            9.9523    10.0360     1.0092 C.3     
  27 C27           11.4500    10.3036     0.8476 C.3     
  28 C28            9.1584    11.1346     0.2994 C.3     
  29 O29           11.7523    11.6189     1.3172 O.3     
  30 C30           13.1330    11.9713     1.2103 C.3     
  31 C31            7.6449     8.9421     6.7395 C.3     
  32 C32            7.1490     8.6837     8.1389 C.ar    
  33 C33            7.5796     7.5663     8.8295 C.ar    
  34 C34            7.1247     7.3292    10.1131 C.ar    
  35 C35            6.2395     8.2098    10.7064 C.ar    
  36 C36            5.8096     9.3277    10.0162 C.ar    
  37 C37            6.2679     9.5670     8.7341 C.ar    
  38 H38            8.8258     9.6287     4.8589 H       
  39 H39            5.3908     7.3142     3.8158 H       
  40 H40            7.9571     8.8598     0.7481 H       
  41 H41            4.4083     6.5986     2.4419 H       
  42 H42            0.2184     4.2733    -1.0123 H       
  43 H43            0.3065     4.4201     0.7594 H       
  44 H44            2.2685     4.9515    -2.4151 H       
  45 H45            0.4746    -0.3137    -0.9220 H       
  46 H46            0.4982    -0.3338     0.8577 H       
  47 H47           -1.9740    -0.1449     0.8925 H       
  48 H48           -1.9976    -0.1248    -0.8872 H       
  49 H49           -1.4560    -1.5823    -0.0207 H       
  50 H50            1.9100     0.0842     1.7428 H       
  51 H51            3.4173     0.5575     0.9228 H       
  52 H52            3.8384    -0.0148     3.2985 H       
  53 H53            4.1793     1.7039     2.9852 H       
  54 H54            2.6720     1.2306     3.8052 H       
  55 H55            9.7065     9.0690     0.5704 H       
  56 H56           12.0142     9.5725     1.4266 H       
  57 H57           11.7222    10.2220    -0.2047 H       
  58 H58            9.4141    11.1409    -0.7602 H       
  59 H59            8.0914    10.9440     0.4145 H       
  60 H60            9.4041    12.1017     0.7382 H       
  61 H61           13.2799    12.9835     1.5870 H       
  62 H62           13.7322    11.2748     1.7968 H       
  63 H63           13.4401    11.9243     0.1655 H       
  64 H64            8.6482     8.5310     6.6279 H       
  65 H65            7.6699    10.0162     6.5554 H       
  66 H66            8.2712     6.8783     8.3660 H       
  67 H67            7.4605     6.4558    10.6524 H       
  68 H68            5.8835     8.0242    11.7090 H       
  69 H69            5.1178    10.0155    10.4795 H       
  70 H70            5.9321    10.4404     8.1949 H       
@<TRIPOS>BOND
   1    1   21 1
   2    1   14 1
   3    2   23 1
   4    2   14 1
   5    3    4 ar
   6    3   25 1
   7    3    8 ar
   8    4    5 ar
   9    4   38 1
  10    5    6 ar
  11    5    9 1
  12    6    7 ar
  13    6   39 1
  14    7    8 ar
  15    7   10 1
  16    8   40 1
  17    9   31 1
  18   10   11 am
  19   10   12 2
  20   11   13 1
  21   11   41 1
  22   13   17 2
  23   13   18 1
  24   14   15 2
  25   14   16 1
  26   16   20 1
  27   16   42 1
  28   16   43 1
  29   17   20 1
  30   18   19 1
  31   19   20 2
  32   19   44 1
  33   21   22 1
  34   21   45 1
  35   21   46 1
  36   22   47 1
  37   22   48 1
  38   22   49 1
  39   23   24 1
  40   23   50 1
  41   23   51 1
  42   24   52 1
  43   24   53 1
  44   24   54 1
  45   25   26 1
  46   26   27 1
  47   26   28 1
  48   26   55 1
  49   27   29 1
  50   27   56 1
  51   27   57 1
  52   28   58 1
  53   28   59 1
  54   28   60 1
  55   29   30 1
  56   30   61 1
  57   30   62 1
  58   30   63 1
  59   31   32 1
  60   31   64 1
  61   31   65 1
  62   32   33 ar
  63   32   37 ar
  64   33   34 ar
  65   33   66 1
  66   34   35 ar
  67   34   67 1
  68   35   36 ar
  69   35   68 1
  70   36   37 ar
  71   36   69 1
  72   37   70 1

#	End of record

