#	Name: ASD02198008
#	Creating user name:	WinNT
#	Creation time:	15. 06. 2019 20:18

#	Modifying user name:	WinNT
#	Modification time:	15. 06. 2019 20:18

#	Program:	/corina/corina34_cracker 3.40 0067  02.08.2006

@<TRIPOS>MOLECULE
ASD02198008
  43   45    0    0    0
SMALL
NO_CHARGES


@<TRIPOS>ATOM
   1 C1             1.1621     1.1513     0.4545 C.2     
   2 C2             1.2733    -0.2088     0.6253 C.2     
   3 C3             2.4870    -0.9158     0.7156 C.2     
   4 C4             2.4801    -2.3590     1.0436 C.ar    
   5 C5             3.4889    -3.1925     0.5590 C.ar    
   6 N6             2.2533     1.9994     0.3490 N.pl3   
   7 C7             1.4680    -2.8909     1.8435 C.ar    
   8 C8             1.4675    -4.2369     2.1461 C.ar    
   9 C9             2.4677    -5.0590     1.6581 C.ar    
  10 C10            3.4770    -4.5369     0.8688 C.ar    
  11 C11           -0.1588     1.5890     0.3924 C.2     
  12 C12           -1.0896     0.5784     0.5137 C.2     
  13 S13           -0.3247    -0.9320     0.7148 S.3     
  14 N14           -2.4518     0.7649     0.4833 N.pl3   
  15 C15            2.4612    -6.5284     1.9929 C.3     
  16 O16            3.5442    -0.3393     0.5235 O.2     
  17 C17           -3.3096    -0.3411     0.4799 C.ar    
  18 C18           -4.5649    -0.2534     1.0783 C.ar    
  19 C19           -2.9147    -1.5261    -0.1244 C.ar    
  20 C20           -3.7637    -2.6165    -0.1267 C.ar    
  21 C21           -5.0074    -2.5300     0.4715 C.ar    
  22 C22           -5.4099    -1.3511     1.0714 C.ar    
  23 O23           -4.9594     0.9067     1.6679 O.3     
  24 C24           -6.2593     0.9236     2.2613 C.3     
  25 C25           -0.5179     2.9636     0.2133 C.1     
  26 N26           -0.8029     4.0541     0.0712 N.1     
  27 H27            4.2771    -2.7862    -0.0575 H       
  28 H28            3.1531     1.6400     0.3949 H       
  29 H29            2.1171     2.9523     0.2292 H       
  30 H30            0.6869    -2.2501     2.2253 H       
  31 H31            0.6849    -4.6498     2.7654 H       
  32 H32            4.2547    -5.1839     0.4906 H       
  33 H33           -2.8181     1.6628     0.4642 H       
  34 H34            1.8958    -7.0711     1.2355 H       
  35 H35            3.4856    -6.9000     2.0173 H       
  36 H36            1.9976    -6.6767     2.9682 H       
  37 H37           -1.9442    -1.5962    -0.5930 H       
  38 H38           -3.4553    -3.5383    -0.5973 H       
  39 H39           -5.6677    -3.3846     0.4669 H       
  40 H40           -6.3819    -1.2871     1.5377 H       
  41 H41           -7.0094     0.7126     1.4991 H       
  42 H42           -6.3119     0.1653     3.0426 H       
  43 H43           -6.4481     1.9057     2.6949 H       
@<TRIPOS>BOND
   1    1    2 2
   2    1    6 1
   3    1   11 1
   4    2    3 1
   5    2   13 1
   6    3    4 1
   7    3   16 2
   8    4    5 ar
   9    4    7 ar
  10    5   10 ar
  11    5   27 1
  12    6   28 1
  13    6   29 1
  14    7    8 ar
  15    7   30 1
  16    8    9 ar
  17    8   31 1
  18    9   10 ar
  19    9   15 1
  20   10   32 1
  21   11   12 2
  22   11   25 1
  23   12   13 1
  24   12   14 1
  25   14   17 1
  26   14   33 1
  27   15   34 1
  28   15   35 1
  29   15   36 1
  30   17   18 ar
  31   17   19 ar
  32   18   23 1
  33   18   22 ar
  34   19   20 ar
  35   19   37 1
  36   20   21 ar
  37   20   38 1
  38   21   22 ar
  39   21   39 1
  40   22   40 1
  41   23   24 1
  42   24   41 1
  43   24   42 1
  44   24   43 1
  45   25   26 3

#	End of record

