#	Name: ASD01900015
#	Creating user name:	WinNT
#	Creation time:	15. 06. 2019 19:51

#	Modifying user name:	WinNT
#	Modification time:	15. 06. 2019 19:51

#	Program:	/corina/corina34_cracker 3.40 0067  02.08.2006

@<TRIPOS>MOLECULE
ASD01900015
  51   54    0    0    0
SMALL
NO_CHARGES


@<TRIPOS>ATOM
   1 C1             0.2236     1.1919    -0.4414 C.ar    
   2 C2             0.1971    -0.1846    -0.2843 C.ar    
   3 C3             1.3641    -0.8878    -0.0521 C.ar    
   4 C4             2.5687    -0.2102     0.0241 C.ar    
   5 C5             2.5979     1.1881    -0.1215 C.ar    
   6 C6             1.4150     1.8833    -0.3618 C.ar    
   7 N7             3.7719    -0.8761     0.2299 N.pl3   
   8 C8             4.8605    -0.1711     0.9162 C.3     
   9 N9             4.9754     1.1981     0.4138 N.am    
  10 C10            3.8913     1.8831    -0.0016 C.2     
  11 C11            6.2284     1.8053     0.3639 C.ar    
  12 C12            4.5737    -0.1368     2.4187 C.3     
  13 C13            4.3385    -1.5611     2.9256 C.3     
  14 C14            5.7510     0.4656     3.1413 C.ar    
  15 O15            3.9803     3.0646    -0.2751 O.2     
  16 C16            5.5967     1.6385     3.8564 C.ar    
  17 C17            6.6767     2.1910     4.5192 C.ar    
  18 C18            7.9108     1.5705     4.4672 C.ar    
  19 C19            8.0649     0.3971     3.7528 C.ar    
  20 C20            6.9839    -0.1578     3.0936 C.ar    
  21 C21            6.4755     2.9502     1.1155 C.ar    
  22 C22            7.7122     3.5523     1.0689 C.ar    
  23 C23            8.7209     3.0125     0.2652 C.ar    
  24 C24            8.4691     1.8621    -0.4887 C.ar    
  25 C25            7.2317     1.2622    -0.4332 C.ar    
  26 C26           10.0470     3.6550     0.2123 C.2     
  27 O27           11.0180     3.1334    -0.5629 O.3     
  28 C28           12.2983     3.8184    -0.5660 C.3     
  29 O29           10.2642     4.6549     0.8677 O.2     
  30 H30           -0.6948     1.7272    -0.6321 H       
  31 H31           -0.7433    -0.7123    -0.3436 H       
  32 H32            1.3363    -1.9605     0.0697 H       
  33 H33            1.4304     2.9561    -0.4852 H       
  34 H34            3.8893    -1.7897    -0.0743 H       
  35 H35            5.7982    -0.6990     0.7425 H       
  36 H36            3.6853     0.4666     2.6053 H       
  37 H37            4.1342    -1.5367     3.9960 H       
  38 H38            3.4870    -1.9968     2.4030 H       
  39 H39            5.2269    -2.1645     2.7390 H       
  40 H40            4.6325     2.1233     3.8970 H       
  41 H41            6.5563     3.1078     5.0773 H       
  42 H42            8.7547     2.0026     4.9844 H       
  43 H43            9.0292    -0.0876     3.7120 H       
  44 H44            7.1043    -1.0746     2.5355 H       
  45 H45            5.6958     3.3669     1.7359 H       
  46 H46            7.9032     4.4410     1.6522 H       
  47 H47            9.2460     1.4425    -1.1105 H       
  48 H48            7.0366     0.3734    -1.0149 H       
  49 H49           12.9881     3.2963    -1.2291 H       
  50 H50           12.1620     4.8416    -0.9160 H       
  51 H51           12.7058     3.8315     0.4449 H       
@<TRIPOS>BOND
   1    1    2 ar
   2    1    6 ar
   3    1   30 1
   4    2    3 ar
   5    2   31 1
   6    3    4 ar
   7    3   32 1
   8    4    5 ar
   9    4    7 1
  10    5    6 ar
  11    5   10 1
  12    6   33 1
  13    7    8 1
  14    7   34 1
  15    8    9 1
  16    8   12 1
  17    8   35 1
  18    9   10 am
  19    9   11 1
  20   10   15 2
  21   11   21 ar
  22   11   25 ar
  23   12   13 1
  24   12   14 1
  25   12   36 1
  26   13   37 1
  27   13   38 1
  28   13   39 1
  29   14   16 ar
  30   14   20 ar
  31   16   17 ar
  32   16   40 1
  33   17   18 ar
  34   17   41 1
  35   18   19 ar
  36   18   42 1
  37   19   20 ar
  38   19   43 1
  39   20   44 1
  40   21   22 ar
  41   21   45 1
  42   22   23 ar
  43   22   46 1
  44   23   24 ar
  45   23   26 1
  46   24   25 ar
  47   24   47 1
  48   25   48 1
  49   26   27 1
  50   26   29 2
  51   27   28 1
  52   28   49 1
  53   28   50 1
  54   28   51 1

#	End of record

