#	Name: ASD01230992
#	Creating user name:	WinNT
#	Creation time:	15. 06. 2019 19:15

#	Modifying user name:	WinNT
#	Modification time:	15. 06. 2019 19:15

#	Program:	/corina/corina34_cracker 3.40 0067  02.08.2006

@<TRIPOS>MOLECULE
ASD01230992
  38   40    0    0    0
SMALL
NO_CHARGES


@<TRIPOS>ATOM
   1 C1            -0.2113     1.3427     1.5484 C.ar    
   2 C2            -0.1492     0.1193     0.8657 C.ar    
   3 C3             1.0859    -0.3283     0.3975 C.ar    
   4 C4             2.2033     0.4593     0.6285 C.ar    
   5 C5             2.0639     1.6532     1.3089 C.ar    
   6 N6             0.8847     2.0574     1.7431 N.ar    
   7 N7            -1.4316     1.8095     2.0177 N.pl3   
   8 C8            -1.3755    -0.6847     0.6459 C.ar    
   9 C9            -1.6789    -1.1617    -0.6285 C.ar    
  10 C10           -2.8199    -1.9096    -0.8297 C.ar    
  11 C11           -3.6664    -2.1874     0.2354 C.ar    
  12 C12           -3.3669    -1.7138     1.5058 C.ar    
  13 C13           -2.2244    -0.9702     1.7144 C.ar    
  14 O14           -4.7903    -2.9238     0.0339 O.3     
  15 C15           -5.9415    -2.2636    -0.2618 C.ar    
  16 C16           -7.1408    -2.9634    -0.3633 C.ar    
  17 C17           -8.3110    -2.2860    -0.6643 C.ar    
  18 C18           -8.2863    -0.9178    -0.8637 C.ar    
  19 C19           -7.0957    -0.2230    -0.7629 C.ar    
  20 C20           -5.9249    -0.8919    -0.4571 C.ar    
  21 O21           -7.1633    -4.3090    -0.1679 O.3     
  22 C22           -8.4292    -4.9609    -0.2879 C.3     
  23 H23            1.1699    -1.2659    -0.1318 H       
  24 H24            3.1748     0.1418     0.2796 H       
  25 H25            2.9345     2.2663     1.4889 H       
  26 H26           -2.2378     1.2898     1.8731 H       
  27 H27           -1.4781     2.6553     2.4903 H       
  28 H28           -1.0213    -0.9453    -1.4574 H       
  29 H29           -3.0555    -2.2793    -1.8167 H       
  30 H30           -4.0274    -1.9312     2.3322 H       
  31 H31           -1.9897    -0.6059     2.7036 H       
  32 H32           -9.2427    -2.8265    -0.7437 H       
  33 H33           -9.1993    -0.3911    -1.0990 H       
  34 H34           -7.0806     0.8455    -0.9193 H       
  35 H35           -4.9966    -0.3460    -0.3749 H       
  36 H36           -9.1220    -4.5469     0.4447 H       
  37 H37           -8.8250    -4.8040    -1.2913 H       
  38 H38           -8.3063    -6.0290    -0.1087 H       
@<TRIPOS>BOND
   1    1    2 ar
   2    1    6 ar
   3    1    7 1
   4    2    3 ar
   5    2    8 1
   6    3    4 ar
   7    3   23 1
   8    4    5 ar
   9    4   24 1
  10    5    6 ar
  11    5   25 1
  12    7   26 1
  13    7   27 1
  14    8    9 ar
  15    8   13 ar
  16    9   10 ar
  17    9   28 1
  18   10   11 ar
  19   10   29 1
  20   11   12 ar
  21   11   14 1
  22   12   13 ar
  23   12   30 1
  24   13   31 1
  25   14   15 1
  26   15   16 ar
  27   15   20 ar
  28   16   17 ar
  29   16   21 1
  30   17   18 ar
  31   17   32 1
  32   18   19 ar
  33   18   33 1
  34   19   20 ar
  35   19   34 1
  36   20   35 1
  37   21   22 1
  38   22   36 1
  39   22   37 1
  40   22   38 1

#	End of record

