#	Name: ASD08150965
#	Creating user name:	WinNT
#	Creation time:	15. 06. 2019 21:16

#	Modifying user name:	WinNT
#	Modification time:	15. 06. 2019 21:16

#	Program:	/corina/corina34_cracker 3.40 0067  02.08.2006

@<TRIPOS>MOLECULE
ASD08150965
  62   67    0    0    0
SMALL
NO_CHARGES


@<TRIPOS>ATOM
   1 N1            -1.0726     2.0653     0.1234 N.2     
   2 C2            -1.1557     0.7770    -0.0410 C.2     
   3 N3             0.0686     0.2679    -0.3572 N.pl3   
   4 C4             0.9543     1.3152    -0.3871 C.ar    
   5 N5             2.2551     1.4376    -0.6303 N.ar    
   6 C6             2.8387     2.6166    -0.5817 C.ar    
   7 N7             2.1782     3.7232    -0.2938 N.ar    
   8 C8             0.8745     3.6993    -0.0362 C.ar    
   9 C9             0.2066     2.4638    -0.0763 C.ar    
  10 N10            0.1908     4.8642     0.2651 N.pl3   
  11 C11            0.9041     6.1433     0.3028 C.3     
  12 C12            1.0663     6.6790    -1.1212 C.3     
  13 N13            0.6509    10.0776     3.1892 N.ar    
  14 C14           -0.0277    10.9405     3.9058 C.ar    
  15 C15           -1.4128    10.8586     4.0327 C.ar    
  16 C16           -2.0971     9.8597     3.4009 C.ar    
  17 C17           -1.3643     8.9353     2.6325 C.ar    
  18 C18           -2.0012     7.8823     1.9545 C.ar    
  19 C19           -1.2636     7.0040     1.2182 C.ar    
  20 C20            0.1190     7.1323     1.1252 C.ar    
  21 C21            0.7792     8.1518     1.7757 C.ar    
  22 C22            0.0422     9.0775     2.5463 C.ar    
  23 N23            2.1658     8.2684     1.6742 N.3     
  24 C24            2.8066     8.0876     2.9836 C.3     
  25 C25            4.3276     8.0419     2.8023 C.3     
  26 N26            4.7467     9.2438     2.0654 N.am    
  27 C27            4.0534     9.5668     0.8091 C.3     
  28 C28            2.5433     9.5526     1.0689 C.3     
  29 C29            5.7393    10.0286     2.5294 C.2     
  30 C30            6.0799    11.2821     1.8259 C.ar    
  31 C31            6.2784    12.4600     2.5494 C.ar    
  32 C32            6.5959    13.6269     1.8880 C.ar    
  33 C33            6.7179    13.6327     0.5068 C.ar    
  34 C34            6.5214    12.4662    -0.2164 C.ar    
  35 C35            6.2100    11.2923     0.4355 C.ar    
  36 O36            6.3544     9.7049     3.5267 O.2     
  37 F37            7.0288    14.7793    -0.1366 F       
  38 Cl38          -3.7247     7.6999     2.0550 Cl      
  39 H39           -2.0611     0.1967     0.0588 H       
  40 H40            0.2757    -0.6640    -0.5293 H       
  41 H41            3.8975     2.6812    -0.7845 H       
  42 H42           -0.7606     4.8339     0.4513 H       
  43 H43            1.8873     5.9980     0.7504 H       
  44 H44            0.0888     6.7406    -1.5997 H       
  45 H45            1.5173     7.6707    -1.0872 H       
  46 H46            1.7082     6.0073    -1.6912 H       
  47 H47            0.5006    11.7353     4.4112 H       
  48 H48           -1.9447    11.5840     4.6304 H       
  49 H49           -3.1706     9.7809     3.4886 H       
  50 H50           -1.7592     6.1967     0.6995 H       
  51 H51            2.5430     8.9204     3.6356 H       
  52 H52            2.4652     7.1536     3.4298 H       
  53 H53            4.8123     8.0232     3.7784 H       
  54 H54            4.6023     7.1514     2.2369 H       
  55 H55            4.3569    10.5564     0.4675 H       
  56 H56            4.3018     8.8230     0.0521 H       
  57 H57            2.0109     9.6810     0.1265 H       
  58 H58            2.2833    10.3649     1.7476 H       
  59 H59            6.1829    12.4567     3.6252 H       
  60 H60            6.7497    14.5384     2.4465 H       
  61 H61            6.6168    12.4764    -1.2922 H       
  62 H62            6.0619    10.3832    -0.1284 H       
@<TRIPOS>BOND
   1    1    2 2
   2    1    9 1
   3    2    3 1
   4    2   39 1
   5    3    4 1
   6    3   40 1
   7    4    5 ar
   8    4    9 ar
   9    5    6 ar
  10    6    7 ar
  11    6   41 1
  12    7    8 ar
  13    8    9 ar
  14    8   10 1
  15   10   11 1
  16   10   42 1
  17   11   12 1
  18   11   20 1
  19   11   43 1
  20   12   44 1
  21   12   45 1
  22   12   46 1
  23   13   14 ar
  24   13   22 ar
  25   14   15 ar
  26   14   47 1
  27   15   16 ar
  28   15   48 1
  29   16   17 ar
  30   16   49 1
  31   17   18 ar
  32   17   22 ar
  33   18   19 ar
  34   18   38 1
  35   19   20 ar
  36   19   50 1
  37   20   21 ar
  38   21   22 ar
  39   21   23 1
  40   23   24 1
  41   23   28 1
  42   24   25 1
  43   24   51 1
  44   24   52 1
  45   25   26 1
  46   25   53 1
  47   25   54 1
  48   26   27 1
  49   26   29 am
  50   27   28 1
  51   27   55 1
  52   27   56 1
  53   28   57 1
  54   28   58 1
  55   29   30 1
  56   29   36 2
  57   30   31 ar
  58   30   35 ar
  59   31   32 ar
  60   31   59 1
  61   32   33 ar
  62   32   60 1
  63   33   34 ar
  64   33   37 1
  65   34   35 ar
  66   34   61 1
  67   35   62 1

#	End of record

