#	Name: ASD02508184
#	Creating user name:	WinNT
#	Creation time:	15. 06. 2019 20:23

#	Modifying user name:	WinNT
#	Modification time:	15. 06. 2019 20:23

#	Program:	/corina/corina34_cracker 3.40 0067  02.08.2006

@<TRIPOS>MOLECULE
ASD02508184
  38   41    0    0    0
SMALL
NO_CHARGES


@<TRIPOS>ATOM
   1 C1             0.2579     1.1277     0.3873 C.ar    
   2 C2             0.1871    -0.2654     0.3527 C.ar    
   3 C3            -1.0247    -0.9261     0.2581 C.ar    
   4 C4            -2.2003    -0.2036     0.1956 C.ar    
   5 C5            -2.1515     1.1796     0.2285 C.ar    
   6 C6            -0.9496     1.8403     0.3275 C.ar    
   7 S7            -3.7489    -1.0353     0.0744 S.o2    
   8 N8            -4.2848    -1.3010     1.6186 N.am    
   9 C9            -4.5153    -0.2244     2.4702 C.ar    
  10 N10            1.5416     1.6340     0.4837 N.am    
  11 C11            2.5662     0.7772     0.5337 C.2     
  12 S12            1.8559    -0.8436     0.4516 S.3     
  13 O13           -4.6558    -0.1115    -0.5116 O.2     
  14 O14           -3.4751    -2.3143    -0.4810 O.2     
  15 C15            1.7733     3.0799     0.5297 C.3     
  16 O16            3.7483     1.0545     0.6179 O.2     
  17 C17           -4.2316    -0.3325     3.8482 C.ar    
  18 C18           -5.0181     0.9606     1.9745 C.ar    
  19 C19           -5.2509     2.0404     2.8201 C.ar    
  20 C20           -4.9908     1.9599     4.1543 C.ar    
  21 C21           -4.4725     0.7732     4.7002 C.ar    
  22 N22           -4.2104     0.6739     6.0079 N.ar    
  23 C23           -3.7267    -0.4302     6.5241 C.ar    
  24 C24           -3.4625    -1.5505     5.7406 C.ar    
  25 C25           -3.7141    -1.5176     4.3974 C.ar    
  26 H26           -1.0514    -2.0055     0.2328 H       
  27 H27           -3.0693     1.7468     0.1797 H       
  28 H28           -0.9342     2.9199     0.3519 H       
  29 H29           -4.4380    -2.2070     1.9296 H       
  30 H30            1.7623     3.4168     1.5662 H       
  31 H31            2.7418     3.3070     0.0841 H       
  32 H32            0.9883     3.5916    -0.0271 H       
  33 H33           -5.2328     1.0511     0.9199 H       
  34 H34           -5.6446     2.9591     2.4110 H       
  35 H35           -5.1789     2.8103     4.7928 H       
  36 H36           -3.5277    -0.4716     7.5848 H       
  37 H37           -3.0638    -2.4458     6.1943 H       
  38 H38           -3.5152    -2.3772     3.7745 H       
@<TRIPOS>BOND
   1    1    2 ar
   2    1   10 1
   3    1    6 ar
   4    2    3 ar
   5    2   12 1
   6    3    4 ar
   7    3   26 1
   8    4    5 ar
   9    4    7 1
  10    5    6 ar
  11    5   27 1
  12    6   28 1
  13    7    8 am
  14    7   13 2
  15    7   14 2
  16    8    9 1
  17    8   29 1
  18    9   17 ar
  19    9   18 ar
  20   10   11 am
  21   10   15 1
  22   11   12 1
  23   11   16 2
  24   15   30 1
  25   15   31 1
  26   15   32 1
  27   17   21 ar
  28   17   25 ar
  29   18   19 ar
  30   18   33 1
  31   19   20 ar
  32   19   34 1
  33   20   21 ar
  34   20   35 1
  35   21   22 ar
  36   22   23 ar
  37   23   24 ar
  38   23   36 1
  39   24   25 ar
  40   24   37 1
  41   25   38 1

#	End of record

