#	Name: ASD01530037
#	Creating user name:	WinNT
#	Creation time:	15. 06. 2019 19:22

#	Modifying user name:	WinNT
#	Modification time:	15. 06. 2019 19:22

#	Program:	/corina/corina34_cracker 3.40 0067  02.08.2006

@<TRIPOS>MOLECULE
ASD01530037
  27   28    0    0    0
SMALL
NO_CHARGES


@<TRIPOS>ATOM
   1 C1            -0.0167     1.3776     0.0096 C.ar    
   2 C2             0.0021    -0.0041     0.0020 C.ar    
   3 C3             1.2066    -0.6820    -0.0131 C.ar    
   4 C4             2.3944     0.0262    -0.0207 C.ar    
   5 C5             2.3805     1.4045    -0.0127 C.ar    
   6 C6             1.1679     2.0964     0.0022 C.ar    
   7 C7             1.8933     4.4218     0.0050 C.2     
   8 O8             3.1914     4.0646    -0.0116 O.3     
   9 O9             1.5867     5.5976     0.0133 O.2     
  10 C10            4.1702     5.1371    -0.0186 C.3     
  11 C11           -1.1716     2.3534     0.0321 C.3     
  12 C12           -0.5073     3.7398     0.0301 C.3     
  13 N13            0.9339     3.4752     0.0123 N.am    
  14 C14            5.5793     4.5414    -0.0374 C.3     
  15 H15           -0.9265    -0.5555     0.0083 H       
  16 H16            1.2200    -1.7619    -0.0187 H       
  17 H17            3.3361    -0.5025    -0.0325 H       
  18 H18            3.3116     1.9517    -0.0179 H       
  19 H19            4.0253     5.7554    -0.9045 H       
  20 H20            4.0459     5.7482     0.8754 H       
  21 H21           -1.7925     2.2281    -0.8550 H       
  22 H22           -1.7662     2.2180     0.9356 H       
  23 H23           -0.8030     4.2995    -0.8573 H       
  24 H24           -0.7767     4.2895     0.9320 H       
  25 H25            5.7242     3.9231     0.8485 H       
  26 H26            5.7036     3.9303    -0.9313 H       
  27 H27            6.3141     5.3465    -0.0427 H       
@<TRIPOS>BOND
   1    1    2 ar
   2    1    6 ar
   3    1   11 1
   4    2    3 ar
   5    2   15 1
   6    3    4 ar
   7    3   16 1
   8    4    5 ar
   9    4   17 1
  10    5    6 ar
  11    5   18 1
  12    6   13 1
  13    7    8 1
  14    7    9 2
  15    7   13 am
  16    8   10 1
  17   10   14 1
  18   10   19 1
  19   10   20 1
  20   11   12 1
  21   11   21 1
  22   11   22 1
  23   12   13 1
  24   12   23 1
  25   12   24 1
  26   14   25 1
  27   14   26 1
  28   14   27 1

#	End of record

