#	Name: ASD01881235
#	Creating user name:	WinNT
#	Creation time:	15. 06. 2019 19:42

#	Modifying user name:	WinNT
#	Modification time:	15. 06. 2019 19:42

#	Program:	/corina/corina34_cracker 3.40 0067  02.08.2006

@<TRIPOS>MOLECULE
ASD01881235
  39   41    0    0    0
SMALL
NO_CHARGES


@<TRIPOS>ATOM
   1 N1            -0.0158     1.3133     0.0093 N.ar    
   2 C2             0.0021    -0.0041     0.0020 C.ar    
   3 N3             1.1312    -0.6836    -0.0124 N.ar    
   4 C4             2.3014    -0.0555    -0.0202 C.ar    
   5 C5             2.3199     1.3381    -0.0129 C.ar    
   6 C6             1.1118     2.0107     0.0022 C.ar    
   7 C7             3.6241     2.0931    -0.0208 C.3     
   8 O8             4.0240     2.3390    -1.3705 O.3     
   9 C9             5.1867     3.0140    -1.5554 C.ar    
  10 C10            5.6345     3.2870    -2.8447 C.ar    
  11 C11            6.8101     3.9701    -3.0314 C.ar    
  12 C12            7.5642     4.3954    -1.9324 C.ar    
  13 C13            7.1102     4.1188    -0.6384 C.ar    
  14 C14            5.9255     3.4367    -0.4576 C.ar    
  15 C15            7.5602     4.4181    -4.2611 C.3     
  16 N16            8.7614     5.1093    -3.7787 N.am    
  17 C17            8.7592     5.0936    -2.4348 C.2     
  18 O18            9.6216     5.5864    -1.7333 O.2     
  19 Cl19           8.0332     4.6385     0.7370 Cl      
  20 I20            1.0638     4.1051     0.0139 I       
  21 C21            9.4285     7.1762    -4.9031 C.3     
  22 C22            9.7929     5.7168    -4.6231 C.3     
  23 O23            3.4597    -0.7589    -0.0346 O.3     
  24 C24            3.3533    -2.1839    -0.0408 C.3     
  25 H25           -0.9344    -0.5419     0.0084 H       
  26 H26            3.4974     3.0426     0.4993 H       
  27 H27            4.3891     1.5022     0.4829 H       
  28 H28            5.0574     2.9612    -3.6975 H       
  29 H29            5.5746     3.2233     0.5413 H       
  30 H30            7.8414     3.5546    -4.8639 H       
  31 H31            6.9450     5.1008    -4.8473 H       
  32 H32           10.1960     7.6282    -5.5313 H       
  33 H33            8.4676     7.2187    -5.4160 H       
  34 H34            9.3622     7.7212    -3.9615 H       
  35 H35           10.7538     5.6743    -4.1102 H       
  36 H36            9.8592     5.1718    -5.5647 H       
  37 H37            2.8222    -2.5125     0.8526 H       
  38 H38            2.8055    -2.5035    -0.9273 H       
  39 H39            4.3510    -2.6227    -0.0523 H       
@<TRIPOS>BOND
   1    1    2 ar
   2    1    6 ar
   3    2    3 ar
   4    2   25 1
   5    3    4 ar
   6    4    5 ar
   7    4   23 1
   8    5    6 ar
   9    5    7 1
  10    6   20 1
  11    7    8 1
  12    7   26 1
  13    7   27 1
  14    8    9 1
  15    9   10 ar
  16    9   14 ar
  17   10   11 ar
  18   10   28 1
  19   11   12 ar
  20   11   15 1
  21   12   13 ar
  22   12   17 1
  23   13   14 ar
  24   13   19 1
  25   14   29 1
  26   15   16 1
  27   15   30 1
  28   15   31 1
  29   16   17 am
  30   16   22 1
  31   17   18 2
  32   21   22 1
  33   21   32 1
  34   21   33 1
  35   21   34 1
  36   22   35 1
  37   22   36 1
  38   23   24 1
  39   24   37 1
  40   24   38 1
  41   24   39 1

#	End of record

