#	Name: ASD05143327
#	Creating user name:	WinNT
#	Creation time:	15. 06. 2019 20:57

#	Modifying user name:	WinNT
#	Modification time:	15. 06. 2019 20:57

#	Program:	/corina/corina34_cracker 3.40 0067  02.08.2006

@<TRIPOS>MOLECULE
ASD05143327
  49   51    0    0    0
SMALL
NO_CHARGES


@<TRIPOS>ATOM
   1 C1            -0.1072     1.2897     1.1120 C.2     
   2 N2            -0.0904    -0.0283     1.1421 N.2     
   3 S3            -1.5866    -0.5224     0.5061 S.3     
   4 C4            -2.1605     1.0781     0.2311 C.2     
   5 N5            -1.1936     1.8698     0.6395 N.2     
   6 N6            -3.3811     1.4512    -0.3012 N.pl3   
   7 C7            -3.7655     2.7956    -0.2938 C.ar    
   8 C8            -5.1124     3.1342    -0.3175 C.ar    
   9 C9            -5.4893     4.4628    -0.3095 C.ar    
  10 C10           -4.5265     5.4563    -0.2781 C.ar    
  11 C11           -3.1838     5.1218    -0.2544 C.ar    
  12 C12           -2.8014     3.7948    -0.2569 C.ar    
  13 C13            0.9245    -0.8336     1.5933 C.ar    
  14 C14            2.2288    -0.6378     1.1400 C.ar    
  15 C15            0.6570    -1.8529     2.5159 C.ar    
  16 C16            1.6875    -2.6600     2.9656 C.ar    
  17 C17            2.9766    -2.4598     2.5055 C.ar    
  18 C18            3.2459    -1.4511     1.5979 C.ar    
  19 C19            1.0439     2.0863     1.5946 C.ar    
  20 C20            1.5346     3.1491     0.8275 C.ar    
  21 C21            1.6404     1.7850     2.8179 C.ar    
  22 C22            2.7128     2.5311     3.2631 C.ar    
  23 C23            3.1987     3.5778     2.4996 C.ar    
  24 C24            2.6116     3.8889     1.2874 C.ar    
  25 O25           -0.6096    -2.0484     2.9681 O.3     
  26 C26           -0.8069    -3.1067     3.9078 C.3     
  27 O27            0.9573     3.4537    -0.3637 O.3     
  28 C28            1.6077     4.4409    -1.1664 C.3     
  29 Cl29          -5.0038     7.1254    -0.2688 Cl      
  30 H30           -3.9705     0.7802    -0.6798 H       
  31 H31           -5.8642     2.3593    -0.3424 H       
  32 H32           -6.5364     4.7267    -0.3283 H       
  33 H33           -2.4345     5.8992    -0.2302 H       
  34 H34           -1.7534     3.5343    -0.2380 H       
  35 H35            2.4428     0.1487     0.4315 H       
  36 H36            1.4849    -3.4469     3.6770 H       
  37 H37            3.7777    -3.0916     2.8599 H       
  38 H38            4.2552    -1.3014     1.2437 H       
  39 H39            1.2637     0.9690     3.4167 H       
  40 H40            3.1742     2.2972     4.2112 H       
  41 H41            4.0382     4.1572     2.8545 H       
  42 H42            2.9956     4.7072     0.6963 H       
  43 H43           -0.5074    -4.0530     3.4574 H       
  44 H44           -0.2040    -2.9205     4.7966 H       
  45 H45           -1.8597    -3.1539     4.1862 H       
  46 H46            1.5913     5.3994    -0.6476 H       
  47 H47            2.6406     4.1417    -1.3442 H       
  48 H48            1.0874     4.5348    -2.1195 H       
  49 Br49           9.2552    12.1254     9.7966 Br      
@<TRIPOS>BOND
   1    1    2 2
   2    1   19 1
   3    1    5 1
   4    2    3 1
   5    2   13 1
   6    3    4 1
   7    4    5 2
   8    4    6 1
   9    6    7 1
  10    6   30 1
  11    7    8 ar
  12    7   12 ar
  13    8    9 ar
  14    8   31 1
  15    9   10 ar
  16    9   32 1
  17   10   11 ar
  18   10   29 1
  19   11   12 ar
  20   11   33 1
  21   12   34 1
  22   13   14 ar
  23   13   15 ar
  24   14   18 ar
  25   14   35 1
  26   15   16 ar
  27   15   25 1
  28   16   17 ar
  29   16   36 1
  30   17   18 ar
  31   17   37 1
  32   18   38 1
  33   19   20 ar
  34   19   21 ar
  35   20   27 1
  36   20   24 ar
  37   21   22 ar
  38   21   39 1
  39   22   23 ar
  40   22   40 1
  41   23   24 ar
  42   23   41 1
  43   24   42 1
  44   25   26 1
  45   26   43 1
  46   26   44 1
  47   26   45 1
  48   27   28 1
  49   28   46 1
  50   28   47 1
  51   28   48 1

#	End of record

