#	Name: ASD09116272
#	Creating user name:	WinNT
#	Creation time:	15. 06. 2019 21:21

#	Modifying user name:	WinNT
#	Modification time:	15. 06. 2019 21:21

#	Program:	/corina/corina34_cracker 3.40 0067  02.08.2006

@<TRIPOS>MOLECULE
ASD09116272
  76   82    0    0    0
SMALL
NO_CHARGES


@<TRIPOS>ATOM
   1 N1            -0.5054     3.9075     0.6167 N.pl3   
   2 N2            -0.9937     5.0836     1.2086 N.2     
   3 C3             0.8398     4.0442     0.5480 C.2     
   4 N4             1.1544     5.2157     1.0589 N.2     
   5 C5             0.0440     5.8454     1.4591 C.2     
   6 N6             1.7264     3.1170     0.0329 N.pl3   
   7 C7             3.0866     3.4340    -0.0766 C.ar    
   8 C8             4.0483     2.4379     0.0042 C.ar    
   9 N9             5.3312     2.7289    -0.0976 N.ar    
  10 C10            5.7503     3.9712    -0.2797 C.ar    
  11 C11            4.8433     5.0214    -0.3708 C.ar    
  12 C12            3.4898     4.7536    -0.2739 C.ar    
  13 C13           -1.2575     2.8118     0.1895 C.ar    
  14 N14           -0.7887     2.0166    -0.7606 N.ar    
  15 N15           -1.4452     1.0011    -1.1967 N.ar    
  16 C16           -2.6389     0.6891    -0.7182 C.ar    
  17 C17           -3.2046     1.4593     0.3019 C.ar    
  18 C18           -2.5023     2.5506     0.7678 C.ar    
  19 C19           -3.4209    -0.4481    -1.2564 C.ar    
  20 C20           -4.7548    -0.2414    -1.6116 C.ar    
  21 C21           -5.3450     1.1369    -1.4923 C.3     
  22 C22           -5.6738     1.4781    -0.0414 C.3     
  23 C23           -4.5314     1.0662     0.8833 C.3     
  24 C24           -2.8480    -1.7062    -1.4059 C.ar    
  25 C25           -3.6108    -2.7518    -1.8890 C.ar    
  26 C26           -4.9383    -2.5479    -2.2195 C.ar    
  27 C27           -5.5097    -1.2948    -2.0810 C.ar    
  28 N28           -0.0027     7.1091     2.0471 N.pl3   
  29 N29            7.1151     4.2295    -0.3809 N.3     
  30 C30            7.8044     3.9174     0.8776 C.3     
  31 C31            9.2696     4.3482     0.7787 C.3     
  32 C32            9.9357     3.6110    -0.3864 C.3     
  33 C33            9.1697     3.9144    -1.6770 C.3     
  34 C34            7.7074     3.4962    -1.5068 C.3     
  35 N35           11.3265     4.0638    -0.5229 N.3     
  36 C36           12.1195     3.7009     0.6659 C.3     
  37 C37           13.3162     2.8579     0.1773 C.3     
  38 C38           13.4471     3.2678    -1.3132 C.3     
  39 C39           11.9640     3.4651    -1.7149 C.3     
  40 C40            5.3288     6.4329    -0.5782 C.3     
  41 H41            1.4067     2.2469    -0.2527 H       
  42 H42            3.7436     1.4125     0.1525 H       
  43 H43            2.7628     5.5494    -0.3414 H       
  44 H44           -2.9032     3.1848     1.5447 H       
  45 H45           -4.6309     1.8651    -1.8768 H       
  46 H46           -6.2579     1.1865    -2.0859 H       
  47 H47           -5.8371     2.5522     0.0465 H       
  48 H48           -6.5818     0.9525     0.2539 H       
  49 H49           -4.5555    -0.0145     1.0232 H       
  50 H50           -4.6584     1.5549     1.8494 H       
  51 H51           -1.8119    -1.8652    -1.1459 H       
  52 H52           -3.1698    -3.7303    -2.0087 H       
  53 H53           -5.5323    -3.3711    -2.5883 H       
  54 H54           -6.5471    -1.1426    -2.3400 H       
  55 H55            0.8173     7.6054     2.1959 H       
  56 H56           -0.8552     7.4917     2.3074 H       
  57 H57            7.3235     4.4513     1.6972 H       
  58 H58            7.7531     2.8446     1.0634 H       
  59 H59            9.3219     5.4233     0.6066 H       
  60 H60            9.7847     4.1022     1.7072 H       
  61 H61            9.9181     2.5379    -0.1961 H       
  62 H62            9.2205     4.9827    -1.8877 H       
  63 H63            9.6135     3.3585    -2.5028 H       
  64 H64            7.6565     2.4254    -1.3098 H       
  65 H65            7.1560     3.7241    -2.4190 H       
  66 H66           12.4790     4.6028     1.1613 H       
  67 H67           11.5097     3.1153     1.3538 H       
  68 H68           14.2202     3.1160     0.7288 H       
  69 H69           13.0997     1.7933     0.2666 H       
  70 H70           14.0061     4.1980    -1.4147 H       
  71 H71           13.9074     2.4716    -1.8982 H       
  72 H72           11.5036     2.5054    -1.9497 H       
  73 H73           11.8882     4.1417    -2.5661 H       
  74 H74            5.3141     6.6695    -1.6421 H       
  75 H75            4.6769     7.1236    -0.0433 H       
  76 H76            6.3464     6.5265    -0.1992 H       
@<TRIPOS>BOND
   1    1    2 1
   2    1    3 1
   3    1   13 1
   4    2    5 2
   5    3    4 2
   6    3    6 1
   7    4    5 1
   8    5   28 1
   9    6    7 1
  10    6   41 1
  11    7    8 ar
  12    7   12 ar
  13    8    9 ar
  14    8   42 1
  15    9   10 ar
  16   10   11 ar
  17   10   29 1
  18   11   12 ar
  19   11   40 1
  20   12   43 1
  21   13   14 ar
  22   13   18 ar
  23   14   15 ar
  24   15   16 ar
  25   16   17 ar
  26   16   19 1
  27   17   18 ar
  28   17   23 1
  29   18   44 1
  30   19   20 ar
  31   19   24 ar
  32   20   21 1
  33   20   27 ar
  34   21   22 1
  35   21   45 1
  36   21   46 1
  37   22   23 1
  38   22   47 1
  39   22   48 1
  40   23   49 1
  41   23   50 1
  42   24   25 ar
  43   24   51 1
  44   25   26 ar
  45   25   52 1
  46   26   27 ar
  47   26   53 1
  48   27   54 1
  49   28   55 1
  50   28   56 1
  51   29   30 1
  52   29   34 1
  53   30   31 1
  54   30   57 1
  55   30   58 1
  56   31   32 1
  57   31   59 1
  58   31   60 1
  59   32   33 1
  60   32   35 1
  61   32   61 1
  62   33   34 1
  63   33   62 1
  64   33   63 1
  65   34   64 1
  66   34   65 1
  67   35   36 1
  68   35   39 1
  69   36   37 1
  70   36   66 1
  71   36   67 1
  72   37   38 1
  73   37   68 1
  74   37   69 1
  75   38   39 1
  76   38   70 1
  77   38   71 1
  78   39   72 1
  79   39   73 1
  80   40   74 1
  81   40   75 1
  82   40   76 1

#	End of record

