#	Name: ASD01885634
#	Creating user name:	WinNT
#	Creation time:	15. 06. 2019 19:49

#	Modifying user name:	WinNT
#	Modification time:	15. 06. 2019 19:49

#	Program:	/corina/corina34_cracker 3.40 0067  02.08.2006

@<TRIPOS>MOLECULE
ASD01885634
  38   41    0    0    0
SMALL
NO_CHARGES


@<TRIPOS>ATOM
   1 C1            -0.0171     1.4133     0.0098 C.ar    
   2 C2             0.0021    -0.0041     0.0020 C.ar    
   3 C3            -1.2278    -0.7095     0.0099 C.ar    
   4 C4            -2.4021     0.0315     0.0251 C.ar    
   5 C5            -2.3351     1.4286     0.0320 C.ar    
   6 N6            -1.1795     2.0667     0.0299 N.ar    
   7 C7             1.2050     2.1126     0.0019 C.ar    
   8 C8             2.3774     1.4227    -0.0130 C.ar    
   9 C9             2.3912     0.0292    -0.0205 C.ar    
  10 C10            1.2285    -0.6812    -0.0128 C.ar    
  11 C11           -1.2591    -2.1898     0.0017 C.2     
  12 C12           -3.5937     2.2126     0.0482 C.2     
  13 N13           -3.5485     3.5596     0.0551 N.am    
  14 O14           -4.6656     1.6406     0.0554 O.2     
  15 C15           -0.5538    -3.0345    -0.8811 C.2     
  16 N16           -0.8388    -4.2717    -0.5736 N.2     
  17 N17           -1.7287    -4.2699     0.5071 N.pl3   
  18 C18           -1.9721    -2.9882     0.8521 C.2     
  19 C19           -2.2695    -5.4042     1.1274 C.ar    
  20 C20           -1.9303    -6.6725     0.6755 C.ar    
  21 C21           -2.4650    -7.7885     1.2889 C.ar    
  22 C22           -3.3374    -7.6437     2.3520 C.ar    
  23 C23           -3.6771    -6.3819     2.8043 C.ar    
  24 C24           -3.1413    -5.2622     2.1988 C.ar    
  25 H25           -3.3600    -0.4672     0.0311 H       
  26 H26            1.2117     3.1926     0.0072 H       
  27 H27            3.3122     1.9634    -0.0193 H       
  28 H28            3.3357    -0.4944    -0.0323 H       
  29 H29            1.2522    -1.7609    -0.0189 H       
  30 H30           -2.6927     4.0162     0.0494 H       
  31 H31           -4.3718     4.0724     0.0657 H       
  32 H32            0.1065    -2.7140    -1.6734 H       
  33 H33           -2.6182    -2.6539     1.6503 H       
  34 H34           -1.2493    -6.7863    -0.1550 H       
  35 H35           -2.2019    -8.7753     0.9376 H       
  36 H36           -3.7545    -8.5178     2.8298 H       
  37 H37           -4.3590    -6.2719     3.6346 H       
  38 H38           -3.4067    -4.2769     2.5527 H       
@<TRIPOS>BOND
   1    1    2 ar
   2    1    7 ar
   3    1    6 ar
   4    2    3 ar
   5    2   10 ar
   6    3    4 ar
   7    3   11 1
   8    4    5 ar
   9    4   25 1
  10    5    6 ar
  11    5   12 1
  12    7    8 ar
  13    7   26 1
  14    8    9 ar
  15    8   27 1
  16    9   10 ar
  17    9   28 1
  18   10   29 1
  19   11   15 1
  20   11   18 2
  21   12   13 am
  22   12   14 2
  23   13   30 1
  24   13   31 1
  25   15   16 2
  26   15   32 1
  27   16   17 1
  28   17   18 1
  29   17   19 1
  30   18   33 1
  31   19   20 ar
  32   19   24 ar
  33   20   21 ar
  34   20   34 1
  35   21   22 ar
  36   21   35 1
  37   22   23 ar
  38   22   36 1
  39   23   24 ar
  40   23   37 1
  41   24   38 1

#	End of record

