#	Name: ASD03331108
#	Creating user name:	WinNT
#	Creation time:	15. 06. 2019 20:38

#	Modifying user name:	WinNT
#	Modification time:	15. 06. 2019 20:38

#	Program:	/corina/corina34_cracker 3.40 0067  02.08.2006

@<TRIPOS>MOLECULE
ASD03331108
  64   67    0    0    0
SMALL
NO_CHARGES


@<TRIPOS>ATOM
   1 N1            -0.5349     1.8209     1.8143 N.pl3   
   2 C2            -0.4719     0.5033     1.4833 C.2     
   3 C3             0.7806    -0.2522     1.1232 C.3     
   4 N4             1.8275     0.0510     2.1115 N.3     
   5 C5             2.6019     1.2299     1.7190 C.3     
   6 C6             1.7238     2.2414     0.9879 C.3     
   7 C7             0.6104     2.7295     1.9187 C.3     
   8 C8            -1.8465     2.1237     2.0381 C.2     
   9 N9            -2.5620     1.0361     1.8706 N.2     
  10 C10           -1.7426     0.0168     1.5302 C.2     
  11 C11           -2.1514    -1.3723     1.2575 C.2     
  12 O12           -1.3164    -2.2043     0.9580 O.2     
  13 N13           -3.4507    -1.7210     1.3401 N.am    
  14 C14           -2.3737     3.4548     2.4081 C.ar    
  15 C15           -3.4812     3.9814     1.7380 C.ar    
  16 C16           -3.9699     5.2255     2.0881 C.ar    
  17 C17           -3.3640     5.9503     3.1008 C.ar    
  18 C18           -2.2635     5.4320     3.7692 C.ar    
  19 C19           -1.7707     4.1869     3.4315 C.ar    
  20 F20           -1.6766     6.1446     4.7555 F       
  21 F21           -3.8455     7.1664     3.4390 F       
  22 F22           -4.0726     3.2757     0.7493 F       
  23 C23           -5.2969    -3.1240     0.6245 C.2     
  24 C24           -3.8571    -3.1021     1.0691 C.3     
  25 C25           -3.7035    -3.9380     2.3414 C.3     
  26 C26           -4.5130    -3.2995     3.4719 C.3     
  27 O27           -6.0614    -2.2616     1.0022 O.2     
  28 N28           -5.7349    -4.1019    -0.1930 N.am    
  29 C29           -7.1552    -4.1828    -0.5429 C.3     
  30 C30           -4.2166    -5.3563     2.0848 C.3     
  31 C31           -2.2274    -3.9939     2.7397 C.3     
  32 C32            2.7044    -1.1087     2.3220 C.3     
  33 C33            3.8801    -0.9395     3.2864 C.3     
  34 C34            2.6694    -1.7805     3.6962 C.3     
  35 H35            0.5745    -1.3225     1.1275 H       
  36 H36            1.1167     0.0512     0.1317 H       
  37 H37            3.0199     1.6970     2.6107 H       
  38 H38            3.4156     0.9216     1.0625 H       
  39 H39            2.3321     3.0898     0.6746 H       
  40 H40            1.2817     1.7699     0.1102 H       
  41 H41            0.3059     3.7346     1.6267 H       
  42 H42            0.9735     2.7416     2.9463 H       
  43 H43           -4.1166    -1.0574     1.5790 H       
  44 H44           -4.8258     5.6336     1.5710 H       
  45 H45           -0.9171     3.7827     3.9553 H       
  46 H46           -3.2276    -3.5185     0.2827 H       
  47 H47           -5.5646    -3.2596     3.1881 H       
  48 H48           -4.4036    -3.8949     4.3783 H       
  49 H49           -4.1474    -2.2890     3.6547 H       
  50 H50           -5.1097    -4.7522    -0.5497 H       
  51 H51           -7.3179    -5.0311    -1.2077 H       
  52 H52           -7.7459    -4.3132     0.3638 H       
  53 H53           -7.4585    -3.2642    -1.0451 H       
  54 H54           -3.7074    -5.7755     1.2171 H       
  55 H55           -4.0183    -5.9780     2.9580 H       
  56 H56           -5.2899    -5.3260     1.8967 H       
  57 H57           -1.8618    -2.9834     2.9225 H       
  58 H58           -2.1179    -4.5894     3.6461 H       
  59 H59           -1.6507    -4.4488     1.9344 H       
  60 H60            2.8547    -1.7484     1.4524 H       
  61 H61            4.8038    -1.4682     3.0514 H       
  62 H62            4.0030     0.0322     3.7646 H       
  63 H63            1.9958    -1.3620     4.4440 H       
  64 H64            2.7967    -2.8625     3.7308 H       
@<TRIPOS>BOND
   1    1    2 1
   2    1    7 1
   3    1    8 1
   4    2    3 1
   5    2   10 2
   6    3    4 1
   7    3   35 1
   8    3   36 1
   9    4    5 1
  10    4   32 1
  11    5    6 1
  12    5   37 1
  13    5   38 1
  14    6    7 1
  15    6   39 1
  16    6   40 1
  17    7   41 1
  18    7   42 1
  19    8    9 2
  20    8   14 1
  21    9   10 1
  22   10   11 1
  23   11   12 2
  24   11   13 am
  25   13   24 1
  26   13   43 1
  27   14   15 ar
  28   14   19 ar
  29   15   16 ar
  30   15   22 1
  31   16   17 ar
  32   16   44 1
  33   17   18 ar
  34   17   21 1
  35   18   19 ar
  36   18   20 1
  37   19   45 1
  38   23   27 2
  39   23   28 am
  40   23   24 1
  41   24   25 1
  42   24   46 1
  43   25   26 1
  44   25   30 1
  45   25   31 1
  46   26   47 1
  47   26   48 1
  48   26   49 1
  49   28   29 1
  50   28   50 1
  51   29   51 1
  52   29   52 1
  53   29   53 1
  54   30   54 1
  55   30   55 1
  56   30   56 1
  57   31   57 1
  58   31   58 1
  59   31   59 1
  60   32   33 1
  61   32   34 1
  62   32   60 1
  63   33   34 1
  64   33   61 1
  65   33   62 1
  66   34   63 1
  67   34   64 1

#	End of record

