#	Name: ASD01910740
#	Creating user name:	WinNT
#	Creation time:	15. 06. 2019 19:56

#	Modifying user name:	WinNT
#	Modification time:	15. 06. 2019 19:56

#	Program:	/corina/corina34_cracker 3.40 0067  02.08.2006

@<TRIPOS>MOLECULE
ASD01910740
  52   55    0    0    0
SMALL
NO_CHARGES


@<TRIPOS>ATOM
   1 C1            12.4098    -2.3111     4.1834 C.ar    
   2 N2            12.9563    -2.4722     2.9900 N.ar    
   3 C3            12.2827    -2.1429     1.9042 C.ar    
   4 C4            10.9946    -1.6251     2.0167 C.ar    
   5 N5            10.4503    -1.4652     3.2161 N.ar    
   6 C6            11.1319    -1.7976     4.2991 C.ar    
   7 N7            10.2815    -1.2764     0.8756 N.3     
   8 C8             8.9533    -0.7544     1.2238 C.3     
   9 C9             8.2727    -0.2154    -0.0390 C.3     
  10 N10            8.2768    -1.2740    -1.0600 N.am    
  11 C11            9.5515    -1.9413    -1.3654 C.3     
  12 C12           10.1816    -2.4124    -0.0505 C.3     
  13 C13            7.1426    -1.6236    -1.6985 C.2     
  14 C14            7.1893    -2.5995    -2.8054 C.ar    
  15 O15            6.0809    -1.1353    -1.3630 O.2     
  16 C16            6.1812    -3.5599    -2.9340 C.ar    
  17 C17            6.2197    -4.4730    -3.9656 C.ar    
  18 C18            7.2590    -4.4467    -4.8840 C.ar    
  19 C19            8.2773    -3.4868    -4.7651 C.ar    
  20 C20            8.2358    -2.5601    -3.7261 C.ar    
  21 C21            9.3515    -3.4577    -5.7116 C.1     
  22 C22           10.2322    -3.4338    -6.4876 C.1     
  23 C23           11.3064    -3.4047    -7.4340 C.ar    
  24 O24            7.2920    -5.3484    -5.8967 O.3     
  25 C25           12.3198    -2.4499    -7.3163 C.ar    
  26 C26           13.3523    -2.4271    -8.2308 C.ar    
  27 C27           13.3871    -3.3466    -9.2637 C.ar    
  28 C28           12.3859    -4.2972    -9.3879 C.ar    
  29 C29           11.3490    -4.3347    -8.4761 C.ar    
  30 F30           12.4268    -5.1915   -10.3997 F       
  31 C31            6.2242    -6.2962    -5.9564 C.3     
  32 H32           12.9620    -2.5858     5.0700 H       
  33 H33           12.7297    -2.2743     0.9299 H       
  34 H34           10.6895    -1.6677     5.2757 H       
  35 H35            8.3481    -1.5547     1.6497 H       
  36 H36            9.0580     0.0498     1.9520 H       
  37 H37            7.2455     0.0675     0.1910 H       
  38 H38            8.8204     0.6517    -0.4083 H       
  39 H39            9.3697    -2.7995    -2.0124 H       
  40 H40           10.2220    -1.2401    -1.8623 H       
  41 H41           11.1772    -2.8105    -0.2463 H       
  42 H42            9.5594    -3.1896     0.3932 H       
  43 H43            5.3695    -3.5865    -2.2220 H       
  44 H44            5.4378    -5.2121    -4.0591 H       
  45 H45            9.0157    -1.8193    -3.6290 H       
  46 H46           12.2945    -1.7308    -6.5109 H       
  47 H47           14.1355    -1.6891    -8.1403 H       
  48 H48           14.1979    -3.3235    -9.9768 H       
  49 H49           10.5690    -5.0754    -8.5731 H       
  50 H50            6.3720    -6.9567    -6.8108 H       
  51 H51            6.2099    -6.8857    -5.0397 H       
  52 H52            5.2762    -5.7692    -6.0643 H       
@<TRIPOS>BOND
   1    1    2 ar
   2    1    6 ar
   3    1   32 1
   4    2    3 ar
   5    3    4 ar
   6    3   33 1
   7    4    5 ar
   8    4    7 1
   9    5    6 ar
  10    6   34 1
  11    7    8 1
  12    7   12 1
  13    8    9 1
  14    8   35 1
  15    8   36 1
  16    9   10 1
  17    9   37 1
  18    9   38 1
  19   10   11 1
  20   10   13 am
  21   11   12 1
  22   11   39 1
  23   11   40 1
  24   12   41 1
  25   12   42 1
  26   13   14 1
  27   13   15 2
  28   14   16 ar
  29   14   20 ar
  30   16   17 ar
  31   16   43 1
  32   17   18 ar
  33   17   44 1
  34   18   19 ar
  35   18   24 1
  36   19   20 ar
  37   19   21 1
  38   20   45 1
  39   21   22 3
  40   22   23 1
  41   23   25 ar
  42   23   29 ar
  43   24   31 1
  44   25   26 ar
  45   25   46 1
  46   26   27 ar
  47   26   47 1
  48   27   28 ar
  49   27   48 1
  50   28   29 ar
  51   28   30 1
  52   29   49 1
  53   31   50 1
  54   31   51 1
  55   31   52 1

#	End of record

