#	Name: ASD01840523
#	Creating user name:	WinNT
#	Creation time:	15. 06. 2019 19:37

#	Modifying user name:	WinNT
#	Modification time:	15. 06. 2019 19:37

#	Program:	/corina/corina34_cracker 3.40 0067  02.08.2006

@<TRIPOS>MOLECULE
ASD01840523
  49   52    0    0    0
SMALL
NO_CHARGES


@<TRIPOS>ATOM
   1 C1            -0.5702    -1.2016    -1.0451 C.3     
   2 O2            -0.0415    -0.2643    -0.1049 O.3     
   3 C3             0.6028    -0.7728     0.9765 C.ar    
   4 C4             1.1329     0.0888     1.9274 C.ar    
   5 C5             1.7879    -0.4397     3.0262 C.ar    
   6 C6             1.8898    -1.8236     3.1347 C.ar    
   7 O7             2.5245    -2.3859     4.1979 O.3     
   8 C8             3.1701    -1.4974     5.1122 C.3     
   9 C9             2.1549    -0.9990     6.1445 C.3     
  10 C10            2.8647    -0.0966     7.1563 C.3     
  11 N11            3.9350    -0.8512     7.8207 N.3     
  12 C12            4.9467    -1.2996     6.8553 C.3     
  13 C13            4.2990    -2.2379     5.8345 C.3     
  14 C14            4.5123    -0.1056     8.8339 C.ar    
  15 N15            5.1698     1.0045     8.5289 N.ar    
  16 C16            5.7357     1.7464     9.4653 C.ar    
  17 N17            6.4222     2.9057     9.1504 N.am    
  18 C18            6.9923     3.6495    10.1132 C.2     
  19 O19            7.5858     4.6606     9.7916 O.2     
  20 N20            6.9350     3.3255    11.4145 N.am    
  21 C21            6.2887     2.2139    11.8295 C.2     
  22 O22            6.2390     1.9245    13.0099 O.2     
  23 C23            5.6474     1.3638    10.8168 C.ar    
  24 C24            4.9597     0.1965    11.1614 C.ar    
  25 C25            4.3852    -0.5349    10.1554 C.ar    
  26 C26            3.6271    -1.7979    10.4733 C.3     
  27 C27            1.3361    -2.6212     2.1463 C.ar    
  28 N28            0.7137    -2.0831     1.1148 N.ar    
  29 H29           -1.2958    -1.8452    -0.5477 H       
  30 H30           -1.0583    -0.6644    -1.8583 H       
  31 H31            0.2402    -1.8100    -1.4464 H       
  32 H32            1.0357     1.1581     1.8111 H       
  33 H33            2.2104     0.2065     3.7814 H       
  34 H34            3.5821    -0.6488     4.5660 H       
  35 H35            1.3707    -0.4341     5.6404 H       
  36 H36            1.7147    -1.8510     6.6626 H       
  37 H37            3.2928     0.7622     6.6394 H       
  38 H38            2.1474     0.2484     7.9010 H       
  39 H39            5.3650    -0.4351     6.3398 H       
  40 H40            5.7416    -1.8282     7.3814 H       
  41 H41            3.8926    -3.1093     6.3478 H       
  42 H42            5.0468    -2.5581     5.1089 H       
  43 H43            6.4930     3.1844     8.2240 H       
  44 H44            7.3650     3.8990    12.0680 H       
  45 H45            4.8792    -0.1169    12.1918 H       
  46 H46            4.3247    -2.6326    10.5432 H       
  47 H47            3.1059    -1.6795    11.4233 H       
  48 H48            2.9024    -1.9953     9.6834 H       
  49 H49            1.4110    -3.6959     2.2234 H       
@<TRIPOS>BOND
   1    1    2 1
   2    1   29 1
   3    1   30 1
   4    1   31 1
   5    2    3 1
   6    3   28 ar
   7    3    4 ar
   8    4    5 ar
   9    4   32 1
  10    5    6 ar
  11    5   33 1
  12    6    7 1
  13    6   27 ar
  14    7    8 1
  15    8   13 1
  16    8    9 1
  17    8   34 1
  18    9   10 1
  19    9   35 1
  20    9   36 1
  21   10   11 1
  22   10   37 1
  23   10   38 1
  24   11   12 1
  25   11   14 1
  26   12   13 1
  27   12   39 1
  28   12   40 1
  29   13   41 1
  30   13   42 1
  31   14   25 ar
  32   14   15 ar
  33   15   16 ar
  34   16   23 ar
  35   16   17 1
  36   17   18 am
  37   17   43 1
  38   18   19 2
  39   18   20 am
  40   20   21 am
  41   20   44 1
  42   21   22 2
  43   21   23 1
  44   23   24 ar
  45   24   25 ar
  46   24   45 1
  47   25   26 1
  48   26   46 1
  49   26   47 1
  50   26   48 1
  51   27   28 ar
  52   27   49 1

#	End of record

