#	Name: ASD01230765
#	Creating user name:	WinNT
#	Creation time:	15. 06. 2019 19:15

#	Modifying user name:	WinNT
#	Modification time:	15. 06. 2019 19:15

#	Program:	/corina/corina34_cracker 3.40 0067  02.08.2006

@<TRIPOS>MOLECULE
ASD01230765
  30   32    0    0    0
SMALL
NO_CHARGES


@<TRIPOS>ATOM
   1 C1            -0.0166     1.3739     0.0096 C.2     
   2 C2             0.0021    -0.0041     0.0020 C.2     
   3 C3            -1.2143    -0.7000     0.0078 C.2     
   4 C4            -2.3849    -0.0390     0.0095 C.2     
   5 N5            -2.4623     1.3311    -0.0002 N.pl3   
   6 C6            -1.3175     2.0759     0.0320 C.2     
   7 C7            -3.8099     1.9042    -0.0513 C.3     
   8 C8            -3.8788     3.1900     0.7778 C.3     
   9 S9            -2.6223     4.3261     0.1103 S.o2    
  10 N10           -1.2621     3.3846     0.0819 N.am    
  11 C11            1.2497     2.1412     0.0016 C.ar    
  12 C12            2.1020     2.0736    -1.1006 C.ar    
  13 O13           -2.8864     4.6250    -1.2536 O.2     
  14 O14           -2.3222     5.3522     1.0463 O.2     
  15 C15            1.5917     2.9387     1.0940 C.ar    
  16 C16            2.7742     3.6527     1.0806 C.ar    
  17 C17            3.6194     3.5771    -0.0166 C.ar    
  18 C18            3.2810     2.7907    -1.1040 C.ar    
  19 Cl19           5.1040     4.4769    -0.0285 Cl      
  20 F20            3.1077     4.4258     2.1371 F       
  21 H21            0.9399    -0.5395    -0.0086 H       
  22 H22           -1.2113    -1.7800     0.0105 H       
  23 H23           -3.3018    -0.6096     0.0185 H       
  24 H24           -4.0657     2.1297    -1.0865 H       
  25 H25           -4.5232     1.1818     0.3456 H       
  26 H26           -4.8688     3.6371     0.6882 H       
  27 H27           -3.6627     2.9700     1.8232 H       
  28 H28            1.8397     1.4604    -1.9501 H       
  29 H29            0.9332     2.9981     1.9480 H       
  30 H30            3.9427     2.7355    -1.9557 H       
@<TRIPOS>BOND
   1    1    2 2
   2    1   11 1
   3    1    6 1
   4    2    3 1
   5    2   21 1
   6    3    4 2
   7    3   22 1
   8    4    5 1
   9    4   23 1
  10    5    6 1
  11    5    7 1
  12    6   10 2
  13    7    8 1
  14    7   24 1
  15    7   25 1
  16    8    9 1
  17    8   26 1
  18    8   27 1
  19    9   10 am
  20    9   13 2
  21    9   14 2
  22   11   12 ar
  23   11   15 ar
  24   12   18 ar
  25   12   28 1
  26   15   16 ar
  27   15   29 1
  28   16   17 ar
  29   16   20 1
  30   17   18 ar
  31   17   19 1
  32   18   30 1

#	End of record

