#	Name: ASD01351004
#	Creating user name:	WinNT
#	Creation time:	15. 06. 2019 19:16

#	Modifying user name:	WinNT
#	Modification time:	15. 06. 2019 19:16

#	Program:	/corina/corina34_cracker 3.40 0067  02.08.2006

@<TRIPOS>MOLECULE
ASD01351004
  71   72    0    0    0
SMALL
NO_CHARGES


@<TRIPOS>ATOM
   1 C1            -0.0186     1.5227     0.0104 C.3     
   2 C2             0.0021    -0.0041     0.0020 C.3     
   3 C3             1.4196     2.0445    -0.0005 C.3     
   4 C4            -0.7434     2.0220    -1.2411 C.3     
   5 N5            -0.7042     2.0315     1.1952 N.am    
   6 C6             0.5233    -0.5173     1.3179 C.ar    
   7 N7             1.4106     3.5039     0.1278 N.am    
   8 C8            -0.5715     1.4260     2.3925 C.2     
   9 C9             0.2357     0.1906     2.4880 C.ar    
  10 C10            1.2759    -1.6690     1.3811 C.ar    
  11 C11            1.4558     4.1228     1.4549 C.3     
  12 C12            1.3606     4.2770    -0.9750 C.2     
  13 O13           -1.1076     1.8894     3.3801 O.2     
  14 C14            0.7077    -0.2690     3.7141 C.ar    
  15 C15            1.7443    -2.1222     2.6029 C.ar    
  16 C16            2.9129     4.3521     1.8612 C.3     
  17 O17            1.3231     3.7646    -2.0736 O.2     
  18 C18            1.4608    -1.4260     3.7643 C.ar    
  19 N19            2.9583     4.9727     3.1919 N.3     
  20 H20           -1.2649     2.8194     1.1195 H       
  21 C21            4.3300     4.9922     3.7172 C.3     
  22 C22            2.3869     6.3257     3.1615 C.3     
  23 C23            1.0746    14.4103    -5.8719 C.3     
  24 C24            1.0841    12.8862    -6.0059 C.3     
  25 C25            1.1438    12.2523    -4.6147 C.3     
  26 C26            1.1532    10.7282    -4.7487 C.3     
  27 C27            1.2130    10.0942    -3.3574 C.3     
  28 C28            1.2224     8.5702    -3.4915 C.3     
  29 C29            1.2821     7.9362    -2.1002 C.3     
  30 C30            1.2916     6.4121    -2.2342 C.3     
  31 C31            1.3513     5.7782    -0.8430 C.3     
  32 H32           -1.0089    -0.3789    -0.1579 H       
  33 H33            0.6477    -0.3529    -0.8039 H       
  34 H34            1.9702     1.6098     0.8338 H       
  35 H35            1.9003     1.7652    -0.9380 H       
  36 H36           -1.7650     1.6421    -1.2452 H       
  37 H37           -0.7611     3.1119    -1.2402 H       
  38 H38           -0.2204     1.6679    -2.1294 H       
  39 H39            1.5002    -2.2183     0.4787 H       
  40 H40            0.9314     5.0780     1.4283 H       
  41 H41            0.9758     3.4648     2.1792 H       
  42 H42            0.4870     0.2755     4.6203 H       
  43 H43            2.3343    -3.0256     2.6496 H       
  44 H44            3.4373     3.3969     1.8878 H       
  45 H45            3.3929     5.0101     1.1369 H       
  46 H46            1.8298    -1.7876     4.7126 H       
  47 H47            4.9691     5.5630     3.0434 H       
  48 H48            4.3350     5.4569     4.7032 H       
  49 H49            4.7040     3.9713     3.7948 H       
  50 H50            1.3482     6.2742     2.8352 H       
  51 H51            2.4331     6.7621     4.1593 H       
  52 H52            2.9556     6.9447     2.4676 H       
  53 H53            1.0321    14.8619    -6.8630 H       
  54 H54            0.2033    14.7188    -5.2943 H       
  55 H55            1.9818    14.7359    -5.3629 H       
  56 H56            0.1769    12.5606    -6.5149 H       
  57 H57            1.9554    12.5776    -6.5835 H       
  58 H58            2.0510    12.5779    -4.1057 H       
  59 H59            0.2724    12.5608    -4.0371 H       
  60 H60            0.2460    10.4026    -5.2576 H       
  61 H61            2.0246    10.4196    -5.3263 H       
  62 H62            2.1202    10.4198    -2.8485 H       
  63 H63            0.3416    10.4028    -2.7798 H       
  64 H64            0.3152     8.2445    -4.0004 H       
  65 H65            2.0938     8.2616    -4.0690 H       
  66 H66            2.1893     8.2618    -1.5912 H       
  67 H67            0.4108     8.2448    -1.5226 H       
  68 H68            0.3844     6.0865    -2.7432 H       
  69 H69            2.1629     6.1036    -2.8118 H       
  70 H70            0.4800     6.0868    -0.2654 H       
  71 H71            2.2585     6.1038    -0.3340 H       
@<TRIPOS>BOND
   1    1    2 1
   2    1    3 1
   3    1    4 1
   4    1    5 1
   5    2    6 1
   6    2   32 1
   7    2   33 1
   8    3    7 1
   9    3   34 1
  10    3   35 1
  11    4   36 1
  12    4   37 1
  13    4   38 1
  14    5    8 am
  15    5   20 1
  16    6    9 ar
  17    6   10 ar
  18    7   11 1
  19    7   12 am
  20    8   13 2
  21    8    9 1
  22    9   14 ar
  23   10   15 ar
  24   10   39 1
  25   11   16 1
  26   11   40 1
  27   11   41 1
  28   12   31 1
  29   12   17 2
  30   14   18 ar
  31   14   42 1
  32   15   18 ar
  33   15   43 1
  34   16   19 1
  35   16   44 1
  36   16   45 1
  37   18   46 1
  38   19   21 1
  39   19   22 1
  40   21   47 1
  41   21   48 1
  42   21   49 1
  43   22   50 1
  44   22   51 1
  45   22   52 1
  46   23   24 1
  47   23   53 1
  48   23   54 1
  49   23   55 1
  50   24   25 1
  51   24   56 1
  52   24   57 1
  53   25   26 1
  54   25   58 1
  55   25   59 1
  56   26   27 1
  57   26   60 1
  58   26   61 1
  59   27   28 1
  60   27   62 1
  61   27   63 1
  62   28   29 1
  63   28   64 1
  64   28   65 1
  65   29   30 1
  66   29   66 1
  67   29   67 1
  68   30   31 1
  69   30   68 1
  70   30   69 1
  71   31   70 1
  72   31   71 1

#	End of record

