#	Name: ASD01122046
#	Creating user name:	WinNT
#	Creation time:	15. 06. 2019 18:59

#	Modifying user name:	WinNT
#	Modification time:	15. 06. 2019 18:59

#	Program:	/corina/corina34_cracker 3.40 0067  02.08.2006

@<TRIPOS>MOLECULE
ASD01122046
  41   44    0    0    0
SMALL
NO_CHARGES


@<TRIPOS>ATOM
   1 N1            -0.0158     1.3161     0.0093 N.ar    
   2 C2             0.0021    -0.0041     0.0020 C.ar    
   3 N3             1.1224    -0.6961    -0.0120 N.ar    
   4 C4             2.2994    -0.0800    -0.0199 C.ar    
   5 C5             2.3349     1.3261    -0.0131 C.ar    
   6 C6             1.1114     2.0200     0.0023 C.ar    
   7 N7             3.6077    -0.4973    -0.0347 N.pl3   
   8 C8             4.3958     0.6281    -0.0366 C.2     
   9 N9             3.6342     1.6988    -0.0238 N.2     
  10 N10            1.0822     3.4040     0.0091 N.pl3   
  11 P11            9.3881    -1.1140     0.3782 P.3     
  12 O12            9.8156    -1.0468     1.8839 O.co2   
  13 O13           10.5740    -0.6294    -0.5235 O.co2   
  14 O14            9.0183    -2.5901     0.0058 O.co2   
  15 C15            4.0763    -1.8853    -0.0458 C.3     
  16 C16            4.2258    -2.3615    -1.4921 C.3     
  17 C17            4.7078    -3.7893    -1.5035 C.ar    
  18 C18            3.7946    -4.8271    -1.5000 C.ar    
  19 C19            4.2367    -6.1368    -1.5104 C.ar    
  20 C20            5.5920    -6.4087    -1.5249 C.ar    
  21 C21            6.5052    -5.3709    -1.5294 C.ar    
  22 C22            6.0630    -4.0612    -1.5233 C.ar    
  23 C23            5.8661     0.6336    -0.0504 C.2     
  24 C24            6.6600     1.7036    -0.3382 C.2     
  25 C25            7.9910     1.2601    -0.2329 C.2     
  26 C26            7.9481    -0.0439     0.1101 C.2     
  27 O27            6.6644    -0.4172     0.2251 O.3     
  28 H28           -0.9375    -0.5365     0.0081 H       
  29 H29            1.9117     3.9066     0.0033 H       
  30 H30            0.2321     3.8711     0.0198 H       
  31 H31            5.0405    -1.9473     0.4587 H       
  32 H32            3.3541    -2.5167     0.4718 H       
  33 H33            3.2616    -2.2994    -1.9966 H       
  34 H34            4.9480    -1.7301    -2.0097 H       
  35 H35            2.7358    -4.6147    -1.4887 H       
  36 H36            3.5233    -6.9476    -1.5069 H       
  37 H37            5.9374    -7.4319    -1.5323 H       
  38 H38            7.5640    -5.5833    -1.5403 H       
  39 H39            6.7764    -3.2504    -1.5268 H       
  40 H40            6.3310     2.6991    -0.5974 H       
  41 H41            8.8795     1.8519    -0.3962 H       
@<TRIPOS>BOND
   1    1    2 ar
   2    1    6 ar
   3    2    3 ar
   4    2   28 1
   5    3    4 ar
   6    4    5 ar
   7    4    7 1
   8    5    6 ar
   9    5    9 1
  10    6   10 1
  11    7    8 1
  12    7   15 1
  13    8    9 2
  14    8   23 1
  15   10   29 1
  16   10   30 1
  17   11   12 ar
  18   11   13 ar
  19   11   14 ar
  20   11   26 1
  21   15   16 1
  22   15   31 1
  23   15   32 1
  24   16   17 1
  25   16   33 1
  26   16   34 1
  27   17   18 ar
  28   17   22 ar
  29   18   19 ar
  30   18   35 1
  31   19   20 ar
  32   19   36 1
  33   20   21 ar
  34   20   37 1
  35   21   22 ar
  36   21   38 1
  37   22   39 1
  38   23   24 2
  39   23   27 1
  40   24   25 1
  41   24   40 1
  42   25   26 2
  43   25   41 1
  44   26   27 1

#	End of record

