#	Name: ASD00311056
#	Creating user name:	WinNT
#	Creation time:	15. 06. 2019 18:34

#	Modifying user name:	WinNT
#	Modification time:	15. 06. 2019 18:34

#	Program:	/corina/corina34_cracker 3.40 0067  02.08.2006

@<TRIPOS>MOLECULE
ASD00311056
  37   40    0    0    0
SMALL
NO_CHARGES


@<TRIPOS>ATOM
   1 C1            -0.0167     1.3775     0.0096 C.2     
   2 C2             0.0021    -0.0041     0.0020 C.2     
   3 C3             1.2586    -0.6767    -0.0136 C.2     
   4 C4             2.4315     0.0671    -0.0208 C.2     
   5 C5             2.3575     1.4749    -0.0125 C.2     
   6 N6             1.1650     2.0901     0.0022 N.am    
   7 C7            -1.3435    -0.5754     0.0118 C.2     
   8 C8            -2.3233     0.3267     0.0260 C.2     
   9 S9            -1.6791     1.9565     0.0358 S.3     
  10 O10            3.3824     2.1370    -0.0183 O.2     
  11 C11           -1.5961    -2.0354     0.0059 C.ar    
  12 C12           -2.2071    -2.6446     1.1015 C.ar    
  13 C13           -2.4397    -4.0046     1.0902 C.ar    
  14 C14           -2.0680    -4.7637    -0.0051 C.ar    
  15 C15           -1.4615    -4.1650    -1.0949 C.ar    
  16 C16           -1.2289    -2.8049    -1.0977 C.ar    
  17 C17            3.7476    -0.6123    -0.0365 C.ar    
  18 C18            4.5925    -0.4747    -1.1368 C.ar    
  19 C19            5.8214    -1.1126    -1.1449 C.ar    
  20 C20            6.2096    -1.8868    -0.0595 C.ar    
  21 C21            5.3725    -2.0239     1.0320 C.ar    
  22 C22            4.1479    -1.3873     1.0520 C.ar    
  23 O23            6.6478    -0.9813    -2.2158 O.3     
  24 O24            1.3083    -2.0292    -0.0209 O.3     
  25 Cl25          -4.0154    -0.0609     0.0392 Cl      
  26 H26            1.1328     3.0595     0.0077 H       
  27 H27           -2.4973    -2.0531     1.9572 H       
  28 H28           -2.9124    -4.4776     1.9382 H       
  29 H29           -2.2518    -5.8279    -0.0092 H       
  30 H30           -1.1733    -4.7628    -1.9470 H       
  31 H31           -0.7595    -2.3380    -1.9509 H       
  32 H32            4.2893     0.1275    -1.9805 H       
  33 H33            7.1684    -2.3837    -0.0683 H       
  34 H34            5.6795    -2.6273     1.8735 H       
  35 H35            3.4981    -1.4927     1.9081 H       
  36 H36            7.2579    -0.2337    -2.1526 H       
  37 H37            2.2056    -2.3898    -0.0314 H       
@<TRIPOS>BOND
   1    1    2 2
   2    1    6 1
   3    1    9 1
   4    2    3 1
   5    2    7 1
   6    3    4 2
   7    3   24 1
   8    4    5 1
   9    4   17 1
  10    5    6 am
  11    5   10 2
  12    6   26 1
  13    7    8 2
  14    7   11 1
  15    8    9 1
  16    8   25 1
  17   11   12 ar
  18   11   16 ar
  19   12   13 ar
  20   12   27 1
  21   13   14 ar
  22   13   28 1
  23   14   15 ar
  24   14   29 1
  25   15   16 ar
  26   15   30 1
  27   16   31 1
  28   17   18 ar
  29   17   22 ar
  30   18   19 ar
  31   18   32 1
  32   19   20 ar
  33   19   23 1
  34   20   21 ar
  35   20   33 1
  36   21   22 ar
  37   21   34 1
  38   22   35 1
  39   23   36 1
  40   24   37 1

#	End of record

