#	Name: ASD03090752
#	Creating user name:	WinNT
#	Creation time:	15. 06. 2019 20:29

#	Modifying user name:	WinNT
#	Modification time:	15. 06. 2019 20:29

#	Program:	/corina/corina34_cracker 3.40 0067  02.08.2006

@<TRIPOS>MOLECULE
ASD03090752
  40   42    0    0    0
SMALL
NO_CHARGES


@<TRIPOS>ATOM
   1 C1            -0.0173     1.4248     0.0099 C.3     
   2 O2             0.0021    -0.0041     0.0020 O.3     
   3 C3            -1.2003    -0.6375     0.0101 C.ar    
   4 C4            -2.3744     0.1010     0.0253 C.ar    
   5 C5            -3.5955    -0.5454     0.0335 C.ar    
   6 C6            -3.6478    -1.9268     0.0266 C.ar    
   7 C7            -2.4787    -2.6653     0.0120 C.ar    
   8 C8            -1.2555    -2.0238    -0.0026 C.ar    
   9 C9             0.0182    -2.8292    -0.0191 C.3     
  10 N10            0.5759    -2.8887     1.3343 N.am    
  11 C11            1.7217    -3.5609     1.5620 C.2     
  12 O12            2.2910    -4.1165     0.6465 O.2     
  13 C13            2.2954    -3.6222     2.9541 C.3     
  14 C14            2.2792    -4.9764     3.6659 C.3     
  15 C15            3.5984    -4.4004     3.1476 C.3     
  16 C16            4.5770    -3.8764     4.1668 C.ar    
  17 C17            5.8516    -3.5101     3.7767 C.ar    
  18 C18            6.7493    -3.0295     4.7116 C.ar    
  19 C19            6.3723    -2.9148     6.0366 C.ar    
  20 C20            5.0974    -3.2802     6.4266 C.ar    
  21 C21            4.1983    -3.7567     5.4909 C.ar    
  22 H22            1.0053     1.8021     0.0021 H       
  23 H23           -0.5445     1.7859    -0.8732 H       
  24 H24           -0.5275     1.7763     0.9067 H       
  25 H25           -2.3341     1.1802     0.0310 H       
  26 H26           -4.5100     0.0291     0.0457 H       
  27 H27           -4.6033    -2.4302     0.0331 H       
  28 H28           -2.5221    -3.7444     0.0070 H       
  29 H29           -0.1951    -3.8392    -0.3690 H       
  30 H30            0.7377    -2.3573    -0.6882 H       
  31 H31            0.1206    -2.4444     2.0665 H       
  32 H32            2.1456    -2.7313     3.5640 H       
  33 H33            2.1191    -4.9764     4.7441 H       
  34 H34            1.8535    -5.8231     3.1273 H       
  35 H35            4.0407    -4.8680     2.2680 H       
  36 H36            6.1462    -3.5998     2.7415 H       
  37 H37            7.7453    -2.7440     4.4069 H       
  38 H38            7.0738    -2.5399     6.7672 H       
  39 H39            4.8029    -3.1908     7.4618 H       
  40 H40            3.2023    -4.0422     5.7956 H       
@<TRIPOS>BOND
   1    1    2 1
   2    1   22 1
   3    1   23 1
   4    1   24 1
   5    2    3 1
   6    3    4 ar
   7    3    8 ar
   8    4    5 ar
   9    4   25 1
  10    5    6 ar
  11    5   26 1
  12    6    7 ar
  13    6   27 1
  14    7    8 ar
  15    7   28 1
  16    8    9 1
  17    9   10 1
  18    9   29 1
  19    9   30 1
  20   10   11 am
  21   10   31 1
  22   11   12 2
  23   11   13 1
  24   13   14 1
  25   13   15 1
  26   13   32 1
  27   14   15 1
  28   14   33 1
  29   14   34 1
  30   15   16 1
  31   15   35 1
  32   16   17 ar
  33   16   21 ar
  34   17   18 ar
  35   17   36 1
  36   18   19 ar
  37   18   37 1
  38   19   20 ar
  39   19   38 1
  40   20   21 ar
  41   20   39 1
  42   21   40 1

#	End of record

