#	Name: ASD08150059
#	Creating user name:	WinNT
#	Creation time:	15. 06. 2019 21:15

#	Modifying user name:	WinNT
#	Modification time:	15. 06. 2019 21:15

#	Program:	/corina/corina34_cracker 3.40 0067  02.08.2006

@<TRIPOS>MOLECULE
ASD08150059
  77   81    0    0    0
SMALL
NO_CHARGES


@<TRIPOS>ATOM
   1 O1             2.0663     1.0060    -2.0527 O.3     
   2 C2             2.6868    -0.0790    -2.5291 C.2     
   3 N3             4.0227     0.0251    -2.5483 N.am    
   4 C4             4.4049     1.3444    -2.0219 C.3     
   5 C5             3.0564     2.0096    -1.6848 C.3     
   6 O6             2.0935    -1.0687    -2.9093 O.2     
   7 C7             5.1513     2.1519    -3.0857 C.3     
   8 C8             7.0591    -1.7142    -3.2968 C.ar    
   9 N9             6.2162    -0.7835    -2.8750 N.ar    
  10 C10            4.9037    -0.9542    -2.9928 C.ar    
  11 C11            4.4225    -2.1298    -3.5684 C.ar    
  12 C12            5.3359    -3.0771    -3.9962 C.ar    
  13 N13            6.6320    -2.8408    -3.8474 N.ar    
  14 O14           11.0047    -2.0527    -2.2133 O.3     
  15 C15           10.6818    -2.3413    -3.5763 C.3     
  16 C16            9.1850    -2.6429    -3.6876 C.3     
  17 N17            8.4201    -1.5017    -3.1641 N.3     
  18 C18            8.7775    -1.2337    -1.7635 C.3     
  19 C19           10.2784    -0.9462    -1.6714 C.3     
  20 Cl20           4.7910    -4.5584    -4.7190 Cl      
  21 C21            2.8640     3.2817    -2.5128 C.3     
  22 C22            1.5317     3.9356    -2.1409 C.3     
  23 O23            1.3520     5.1237    -2.9143 O.3     
  24 Si24          -0.0615     5.8886    -2.6365 Si      
  25 C25           -0.4100     7.0795    -4.0328 C.ar    
  26 C26           -1.5888     6.9801    -4.7480 C.ar    
  27 C27           -1.8467     7.8613    -5.7813 C.ar    
  28 C28           -0.9260     8.8422    -6.0992 C.ar    
  29 C29            0.2524     8.9422    -5.3834 C.ar    
  30 C30            0.5083     8.0637    -4.3473 C.ar    
  31 C31           -1.4395     4.6318    -2.5314 C.ar    
  32 C32           -2.0165     4.1405    -3.6875 C.ar    
  33 C33           -3.0362     3.2105    -3.6097 C.ar    
  34 C34           -3.4787     2.7715    -2.3759 C.ar    
  35 C35           -2.9011     3.2621    -1.2198 C.ar    
  36 C36           -1.8784     4.1889    -1.2976 C.ar    
  37 C37            0.0459     6.8281    -1.0313 C.3     
  38 C38            0.9319     8.0610    -1.2202 C.3     
  39 C39           -1.3556     7.2680    -0.6031 C.3     
  40 C40            0.6494     5.9268     0.0478 C.3     
  41 H41            5.0137     1.2368    -1.1243 H       
  42 H42            2.9964     2.2331    -0.6196 H       
  43 H43            4.5172     2.2687    -3.9645 H       
  44 H44            5.4030     3.1342    -2.6860 H       
  45 H45            6.0656     1.6279    -3.3644 H       
  46 H46            3.3611    -2.2972    -3.6773 H       
  47 H47           10.9270    -1.4806    -4.1985 H       
  48 H48           11.2534    -3.2073    -3.9102 H       
  49 H49            8.9236    -2.8074    -4.7330 H       
  50 H50            8.9494    -3.5355    -3.1081 H       
  51 H51            8.2187    -0.3695    -1.4043 H       
  52 H52            8.5354    -2.1038    -1.1532 H       
  53 H53           10.5582    -0.8032    -0.6277 H       
  54 H54           10.5118    -0.0450    -2.2383 H       
  55 H55            3.6791     3.9756    -2.3077 H       
  56 H56            2.8608     3.0281    -3.5729 H       
  57 H57            0.7166     3.2417    -2.3461 H       
  58 H58            1.5349     4.1892    -1.0808 H       
  59 H59           -2.3081     6.2137    -4.4996 H       
  60 H60           -2.7673     7.7832    -6.3405 H       
  61 H61           -1.1272     9.5303    -6.9070 H       
  62 H62            0.9718     9.7084    -5.6320 H       
  63 H63            1.4273     8.1441    -3.7857 H       
  64 H64           -1.6708     4.4835    -4.6515 H       
  65 H65           -3.4875     2.8271    -4.5129 H       
  66 H66           -4.2759     2.0454    -2.3151 H       
  67 H67           -3.2470     2.9194    -0.2558 H       
  68 H68           -1.4246     4.5695    -0.3945 H       
  69 H69            0.5383     8.6701    -2.0340 H       
  70 H70            0.9416     8.6459    -0.3005 H       
  71 H71            1.9472     7.7454    -1.4608 H       
  72 H72           -1.9524     6.3900    -0.3563 H       
  73 H73           -1.2821     7.9149     0.2712 H       
  74 H74           -1.8306     7.8126    -1.4191 H       
  75 H75            1.6961     5.7316    -0.1856 H       
  76 H76            0.5794     6.4224     1.0161 H       
  77 H77            0.1028     4.9844     0.0815 H       
@<TRIPOS>BOND
   1    1    2 1
   2    1    5 1
   3    2    3 am
   4    2    6 2
   5    3    4 1
   6    3   10 1
   7    4    5 1
   8    4    7 1
   9    4   41 1
  10    5   21 1
  11    5   42 1
  12    7   43 1
  13    7   44 1
  14    7   45 1
  15    8    9 ar
  16    8   13 ar
  17    8   17 1
  18    9   10 ar
  19   10   11 ar
  20   11   12 ar
  21   11   46 1
  22   12   13 ar
  23   12   20 1
  24   14   15 1
  25   14   19 1
  26   15   16 1
  27   15   47 1
  28   15   48 1
  29   16   17 1
  30   16   49 1
  31   16   50 1
  32   17   18 1
  33   18   19 1
  34   18   51 1
  35   18   52 1
  36   19   53 1
  37   19   54 1
  38   21   22 1
  39   21   55 1
  40   21   56 1
  41   22   23 1
  42   22   57 1
  43   22   58 1
  44   23   24 1
  45   24   25 1
  46   24   31 1
  47   24   37 1
  48   25   26 ar
  49   25   30 ar
  50   26   27 ar
  51   26   59 1
  52   27   28 ar
  53   27   60 1
  54   28   29 ar
  55   28   61 1
  56   29   30 ar
  57   29   62 1
  58   30   63 1
  59   31   32 ar
  60   31   36 ar
  61   32   33 ar
  62   32   64 1
  63   33   34 ar
  64   33   65 1
  65   34   35 ar
  66   34   66 1
  67   35   36 ar
  68   35   67 1
  69   36   68 1
  70   37   38 1
  71   37   40 1
  72   37   39 1
  73   38   69 1
  74   38   70 1
  75   38   71 1
  76   39   72 1
  77   39   73 1
  78   39   74 1
  79   40   75 1
  80   40   76 1
  81   40   77 1

#	End of record

