#	Name: ASD01410892
#	Creating user name:	WinNT
#	Creation time:	15. 06. 2019 19:18

#	Modifying user name:	WinNT
#	Modification time:	15. 06. 2019 19:18

#	Program:	/corina/corina34_cracker 3.40 0067  02.08.2006

@<TRIPOS>MOLECULE
ASD01410892
  68   71    0    0    0
SMALL
NO_CHARGES


@<TRIPOS>ATOM
   1 C1            -2.6028     3.5186     0.5121 C.ar    
   2 C2            -2.2546     1.1639     0.1810 C.ar    
   3 C3            -3.6198     0.9409     0.2944 C.ar    
   4 C4            -4.4848     2.0202     0.5313 C.ar    
   5 C5            -3.9650     3.3128     0.6332 C.ar    
   6 O6            -2.0954     4.7757     0.6168 O.3     
   7 C7            -1.7286     5.4116    -0.5241 C.ar    
   8 N8            -4.1287    -0.3523     0.1849 N.am    
   9 C9            -4.1817    -1.1498     1.2701 C.2     
  10 C10           -3.7710    -0.6161     2.6182 C.3     
  11 O11           -4.5600    -2.2970     1.1616 O.2     
  12 C12           -4.6674    -1.2206     3.7007 C.3     
  13 C13           -1.8969    -0.4510     4.2622 C.3     
  14 C14           -2.7933    -1.0555     5.3448 C.3     
  15 C15           -4.2504    -0.6788     5.0694 C.3     
  16 C16           -2.3762    -0.5136     6.7135 C.3     
  17 N17           -1.8112     4.7783    -1.6827 N.ar    
  18 C18           -4.6059    -0.8444    -1.1099 C.3     
  19 C19           -1.2754     6.7232    -0.4653 C.ar    
  20 C20           -0.9047     7.3607    -1.6366 C.ar    
  21 C21           -1.0011     6.6600    -2.8308 C.ar    
  22 C22           -1.4653     5.3595    -2.8154 C.ar    
  23 C23           -2.3139    -0.9929     2.8935 C.3     
  24 C24           -1.7501     2.4439     0.2893 C.ar    
  25 C25           -3.4678    -1.5005    -1.8483 C.ar    
  26 C26           -3.2263    -2.8520    -1.6839 C.ar    
  27 C27           -2.6704    -0.7512    -2.6935 C.ar    
  28 C28           -1.6268    -1.3503    -3.3720 C.ar    
  29 C29           -1.3791    -2.7051    -3.2047 C.ar    
  30 C30           -2.1837    -3.4557    -2.3598 C.ar    
  31 O31           -0.3533    -3.2969    -3.8713 O.3     
  32 C32           -0.1572    -4.6951    -3.6507 C.3     
  33 C33           -1.1889     7.4427     0.8560 C.3     
  34 F34           -0.7074     8.7400     0.6500 F       
  35 F35           -2.4597     7.5039     1.4378 F       
  36 F36           -0.3193     6.7522     1.7070 F       
  37 C37           -5.9361     1.7936     0.6528 C.2     
  38 O38           -6.3865     0.6699     0.5479 O.2     
  39 O39           -6.7636     2.8326     0.8803 O.3     
  40 H40           -1.5865     0.3351    -0.0013 H       
  41 H41           -4.6254     4.1495     0.8066 H       
  42 H42           -3.8734     0.4691     2.6259 H       
  43 H43           -5.7054    -0.9522     3.5046 H       
  44 H44           -4.5650    -2.3058     3.6930 H       
  45 H45           -1.9992     0.6342     4.2699 H       
  46 H46           -0.8588    -0.7194     4.4584 H       
  47 H47           -2.6909    -2.1407     5.3370 H       
  48 H48           -4.3527     0.4064     5.0772 H       
  49 H49           -4.8890    -1.1094     5.8407 H       
  50 H50           -2.4786     0.5715     6.7212 H       
  51 H51           -3.0148    -0.9443     7.4847 H       
  52 H52           -1.3382    -0.7821     6.9096 H       
  53 H53           -5.4028    -1.5710    -0.9511 H       
  54 H54           -4.9872    -0.0096    -1.6978 H       
  55 H55           -0.5489     8.3803    -1.6217 H       
  56 H56           -0.7201     7.1283    -3.7625 H       
  57 H57           -1.5419     4.8097    -3.7419 H       
  58 H58           -2.2115    -2.0780     2.8858 H       
  59 H59           -1.6753    -0.5622     2.1223 H       
  60 H60           -0.6869     2.6115     0.2002 H       
  61 H61           -3.8531    -3.4360    -1.0264 H       
  62 H62           -2.8638     0.3034    -2.8237 H       
  63 H63           -1.0044    -0.7646    -4.0323 H       
  64 H64           -1.9929    -4.5105    -2.2279 H       
  65 H65            0.6914    -5.0405    -4.2412 H       
  66 H66            0.0399    -4.8720    -2.5934 H       
  67 H67           -1.0532    -5.2392    -3.9494 H       
  68 H68           -7.7073     2.6346     0.9525 H       
@<TRIPOS>BOND
   1    1   24 ar
   2    1    6 1
   3    1    5 ar
   4    2    3 ar
   5    2   24 ar
   6    2   40 1
   7    3    4 ar
   8    3    8 1
   9    4    5 ar
  10    4   37 1
  11    5   41 1
  12    6    7 1
  13    7   19 ar
  14    7   17 ar
  15    8    9 am
  16    8   18 1
  17    9   11 2
  18    9   10 1
  19   10   12 1
  20   10   23 1
  21   10   42 1
  22   12   15 1
  23   12   43 1
  24   12   44 1
  25   13   14 1
  26   13   23 1
  27   13   45 1
  28   13   46 1
  29   14   15 1
  30   14   16 1
  31   14   47 1
  32   15   48 1
  33   15   49 1
  34   16   50 1
  35   16   51 1
  36   16   52 1
  37   17   22 ar
  38   18   25 1
  39   18   53 1
  40   18   54 1
  41   19   20 ar
  42   19   33 1
  43   20   21 ar
  44   20   55 1
  45   21   22 ar
  46   21   56 1
  47   22   57 1
  48   23   58 1
  49   23   59 1
  50   24   60 1
  51   25   26 ar
  52   25   27 ar
  53   26   30 ar
  54   26   61 1
  55   27   28 ar
  56   27   62 1
  57   28   29 ar
  58   28   63 1
  59   29   30 ar
  60   29   31 1
  61   30   64 1
  62   31   32 1
  63   32   65 1
  64   32   66 1
  65   32   67 1
  66   33   34 1
  67   33   35 1
  68   33   36 1
  69   37   38 2
  70   37   39 1
  71   39   68 1

#	End of record

