#	Name: ASD01811734
#	Creating user name:	WinNT
#	Creation time:	15. 06. 2019 19:27

#	Modifying user name:	WinNT
#	Modification time:	15. 06. 2019 19:27

#	Program:	/corina/corina34_cracker 3.40 0067  02.08.2006

@<TRIPOS>MOLECULE
ASD01811734
  58   63    0    0    0
SMALL
NO_CHARGES


@<TRIPOS>ATOM
   1 C1             0.6487     1.4579     0.1303 C.ar    
   2 C2             0.3968     0.0987     0.0484 C.ar    
   3 C3             1.4182    -0.7806    -0.2652 C.ar    
   4 C4             2.6941    -0.3112    -0.4990 C.ar    
   5 C5             2.9558     1.0580    -0.4187 C.ar    
   6 C6             1.9175     1.9366    -0.1010 C.ar    
   7 C7            -0.9936    -0.4244     0.3020 C.3     
   8 C8            -1.6277    -0.1161     1.6598 C.3     
   9 C9            -2.1261     0.5994     0.4027 C.3     
  10 C10            4.1875     1.8473    -0.6105 C.2     
  11 N11            3.9371     3.1547    -0.4236 N.am    
  12 C12            2.5170     3.3205    -0.0937 C.3     
  13 C13            1.1355    -2.2584    -0.3513 C.3     
  14 C14            1.2238    -2.8677     1.0242 C.ar    
  15 C15            0.0774    -3.0371     1.7787 C.ar    
  16 C16            0.1551    -3.5956     3.0395 C.ar    
  17 C17            1.3858    -3.9872     3.5492 C.ar    
  18 C18            2.5350    -3.8158     2.7892 C.ar    
  19 C19            2.4503    -3.2615     1.5270 C.ar    
  20 N20            1.4679    -4.5539     4.8287 N.pl3   
  21 N21            0.3946    -4.7838     5.6990 N.2     
  22 C22            0.8644    -5.3248     6.7941 C.2     
  23 C23            2.2506    -5.4572     6.6575 C.2     
  24 C24            2.5965    -4.9810     5.4390 C.2     
  25 O25            5.2735     1.3818    -0.8960 O.2     
  26 C26            4.9200     4.2357    -0.5317 C.3     
  27 C27            4.9524     4.7536    -1.9710 C.3     
  28 O28            3.7069     5.3860    -2.2880 O.3     
  29 C29            3.9241     6.7733    -2.5905 C.3     
  30 C30            5.3995     6.8597    -3.0559 C.3     
  31 C31            6.0651     5.8130    -2.1215 C.3     
  32 H32           -0.1514     2.1421     0.3712 H       
  33 H33            3.4885    -1.0009    -0.7431 H       
  34 H34           -1.2241    -1.3871    -0.1542 H       
  35 H35           -2.2756    -0.8759     2.0969 H       
  36 H36           -1.0391     0.4651     2.3698 H       
  37 H37           -1.8656     1.6513     0.2855 H       
  38 H38           -3.1020     0.3103     0.0126 H       
  39 H39            2.0288     3.9441    -0.8427 H       
  40 H40            2.4119     3.7692     0.8941 H       
  41 H41            0.1347    -2.4140    -0.7541 H       
  42 H42            1.8680    -2.7309    -1.0057 H       
  43 H43           -0.8795    -2.7320     1.3818 H       
  44 H44           -0.7405    -3.7274     3.6285 H       
  45 H45            3.4938    -4.1191     3.1832 H       
  46 H46            3.3439    -3.1279     0.9354 H       
  47 H47            0.2824    -5.6183     7.6553 H       
  48 H48            2.9250    -5.8703     7.3930 H       
  49 H49            3.5953    -4.9434     5.0298 H       
  50 H50            4.6424     5.0477     0.1405 H       
  51 H51            5.9058     3.8591    -0.2588 H       
  52 H52            5.1323     3.9263    -2.6575 H       
  53 H53            3.2559     7.0955    -3.3892 H       
  54 H54            3.7720     7.3831    -1.6999 H       
  55 H55            5.4988     6.5715    -4.1024 H       
  56 H56            5.8079     7.8556    -2.8842 H       
  57 H57            6.3122     6.2559    -1.1566 H       
  58 H58            6.9501     5.3822    -2.5898 H       
@<TRIPOS>BOND
   1    1    2 ar
   2    1    6 ar
   3    1   32 1
   4    2    3 ar
   5    2    7 1
   6    3    4 ar
   7    3   13 1
   8    4    5 ar
   9    4   33 1
  10    5    6 ar
  11    5   10 1
  12    6   12 1
  13    7    8 1
  14    7    9 1
  15    7   34 1
  16    8    9 1
  17    8   35 1
  18    8   36 1
  19    9   37 1
  20    9   38 1
  21   10   11 am
  22   10   25 2
  23   11   12 1
  24   11   26 1
  25   12   39 1
  26   12   40 1
  27   13   14 1
  28   13   41 1
  29   13   42 1
  30   14   15 ar
  31   14   19 ar
  32   15   16 ar
  33   15   43 1
  34   16   17 ar
  35   16   44 1
  36   17   18 ar
  37   17   20 1
  38   18   19 ar
  39   18   45 1
  40   19   46 1
  41   20   21 1
  42   20   24 1
  43   21   22 2
  44   22   23 1
  45   22   47 1
  46   23   24 2
  47   23   48 1
  48   24   49 1
  49   26   27 1
  50   26   50 1
  51   26   51 1
  52   27   28 1
  53   27   31 1
  54   27   52 1
  55   28   29 1
  56   29   30 1
  57   29   53 1
  58   29   54 1
  59   30   31 1
  60   30   55 1
  61   30   56 1
  62   31   57 1
  63   31   58 1

#	End of record

