#	Name: ASD01903352
#	Creating user name:	WinNT
#	Creation time:	15. 06. 2019 19:54

#	Modifying user name:	WinNT
#	Modification time:	15. 06. 2019 19:54

#	Program:	/corina/corina34_cracker 3.40 0067  02.08.2006

@<TRIPOS>MOLECULE
ASD01903352
  38   41    0    0    0
SMALL
NO_CHARGES


@<TRIPOS>ATOM
   1 C1            -0.0218     1.3719    -0.0657 C.ar    
   2 C2            -0.0023    -0.0070    -0.0727 C.ar    
   3 C3             1.2052    -0.6961    -0.0722 C.ar    
   4 C4             2.3895     0.0043    -0.0653 C.ar    
   5 C5             2.3673     1.3944    -0.0587 C.ar    
   6 C6             1.1682     2.0757    -0.0587 C.ar    
   7 S7             1.5020    -2.4347    -0.0796 S.o2    
   8 N8             3.1499    -2.6328    -0.0755 N.am    
   9 S9             3.7701    -1.0934    -0.0662 S.o2    
  10 O10            4.4261    -0.9153    -1.3141 O.2     
  11 O11            4.4185    -0.9272     1.1873 O.2     
  12 O12            1.0332    -2.9293     1.1673 O.2     
  13 O13            1.0409    -2.9174    -1.3340 O.2     
  14 C14            3.8626    -3.8379    -0.0786 C.ar    
  15 C15            5.2563    -3.8333    -0.0744 C.ar    
  16 C16            5.9191    -5.0474    -0.0772 C.ar    
  17 C17            5.1784    -6.2240    -0.0842 C.ar    
  18 N18            3.8552    -6.1907    -0.0881 N.ar    
  19 C19            3.1903    -5.0512    -0.0802 C.ar    
  20 N20            5.8369    -7.4530    -0.0876 N.pl3   
  21 C21            5.1080    -8.6330     0.0192 C.ar    
  22 N22            3.8012    -8.5806     0.2260 N.ar    
  23 C23            3.0731    -9.6759     0.3329 C.ar    
  24 C24            3.6533   -10.9244     0.2323 C.ar    
  25 C25            5.0215   -11.0231     0.0155 C.ar    
  26 C26            5.7577    -9.8577    -0.0980 C.ar    
  27 H27           -0.9637     1.9004    -0.0702 H       
  28 H28           -0.9324    -0.5559    -0.0781 H       
  29 H29            3.2963     1.9451    -0.0532 H       
  30 H30            1.1588     3.1557    -0.0540 H       
  31 H31            5.8059    -2.9036    -0.0694 H       
  32 H32            6.9986    -5.0810    -0.0745 H       
  33 H33            2.1104    -5.0631    -0.0833 H       
  34 H34            6.8034    -7.4852    -0.1644 H       
  35 H35            2.0095    -9.5945     0.5015 H       
  36 H36            3.0495   -11.8153     0.3218 H       
  37 H37            5.4993   -11.9882    -0.0669 H       
  38 H38            6.8236    -9.8979    -0.2668 H       
@<TRIPOS>BOND
   1    1    2 ar
   2    1    6 ar
   3    1   27 1
   4    2    3 ar
   5    2   28 1
   6    3    4 ar
   7    3    7 1
   8    4    5 ar
   9    4    9 1
  10    5    6 ar
  11    5   29 1
  12    6   30 1
  13    7    8 am
  14    7   12 2
  15    7   13 2
  16    8    9 am
  17    8   14 1
  18    9   10 2
  19    9   11 2
  20   14   15 ar
  21   14   19 ar
  22   15   16 ar
  23   15   31 1
  24   16   17 ar
  25   16   32 1
  26   17   18 ar
  27   17   20 1
  28   18   19 ar
  29   19   33 1
  30   20   21 1
  31   20   34 1
  32   21   22 ar
  33   21   26 ar
  34   22   23 ar
  35   23   24 ar
  36   23   35 1
  37   24   25 ar
  38   24   36 1
  39   25   26 ar
  40   25   37 1
  41   26   38 1

#	End of record

