#	Name: ASD01820013
#	Creating user name:	WinNT
#	Creation time:	15. 06. 2019 19:36

#	Modifying user name:	WinNT
#	Modification time:	15. 06. 2019 19:36

#	Program:	/corina/corina34_cracker 3.40 0067  02.08.2006

@<TRIPOS>MOLECULE
ASD01820013
  93   97    0    0    0
SMALL
NO_CHARGES


@<TRIPOS>ATOM
   1 C1            -2.6692     5.1715    -0.6916 C.ar    
   2 C2            -2.9075     3.6851    -0.6304 C.3     
   3 C3            -1.7643     2.9547    -1.3357 C.3     
   4 C4            -0.4416     3.4835    -0.8503 C.2     
   5 N5            -0.2929     4.7839    -0.5378 N.am    
   6 C6            -1.3727     5.6659    -0.6429 C.ar    
   7 C7             1.8296     5.7371    -1.2913 C.3     
   8 C8             1.0092     5.2787    -0.0839 C.3     
   9 O9             0.5013     2.7287    -0.7390 O.2     
  10 C10            3.1895     6.2539    -0.8173 C.3     
  11 N11            3.9772     6.6940    -1.9765 N.3     
  12 C12            5.1854     7.4114    -1.5499 C.3     
  13 C13           -1.1524     7.0359    -0.6983 C.ar    
  14 C14           -2.2235     7.9015    -0.8024 C.ar    
  15 C15           -3.5137     7.4056    -0.8509 C.ar    
  16 C16           -3.7358     6.0416    -0.8018 C.ar    
  17 C17            3.1650     7.5146    -2.8838 C.3     
  18 C18            3.9707     7.8323    -4.1455 C.3     
  19 C19            5.2475     8.5817    -3.7546 C.3     
  20 C20            6.0515     7.7261    -2.7718 C.3     
  21 O21           15.4261    14.1403    -8.1714 O.3     
  22 C22           16.2804    14.4701    -9.1755 C.2     
  23 C23           17.4265    15.2424    -8.9945 C.2     
  24 C24           17.8225    15.7806    -7.6766 C.2     
  25 C25           18.8514    16.5976    -7.6164 C.2     
  26 C26           17.0276    15.3742    -6.4691 C.3     
  27 N27           17.7838    15.6597    -5.2432 N.3     
  28 C28           18.2608    17.0524    -5.2510 C.3     
  29 C29           19.3395    17.1943    -6.3258 C.3     
  30 C30           16.9727    15.3876    -4.0490 C.3     
  31 N31           18.1259    15.4544   -10.0810 N.2     
  32 S32           17.4239    14.7451   -11.2826 S.3     
  33 N33           16.1211    14.0930   -10.4191 N.2     
  34 C34            6.0870     8.8488    -5.0055 C.3     
  35 C35            7.2992     9.7047    -4.6330 C.3     
  36 C36            8.1387     9.9718    -5.8839 C.3     
  37 C37            9.3509    10.8278    -5.5115 C.3     
  38 C38           10.1904    11.0948    -6.7624 C.3     
  39 C39           11.4026    11.9508    -6.3899 C.3     
  40 C40           12.2421    12.2178    -7.6409 C.3     
  41 C41           13.4544    13.0738    -7.2684 C.3     
  42 C42           14.2938    13.3408    -8.5193 C.3     
  43 H43           -2.9536     3.3673     0.4113 H       
  44 H44           -3.8497     3.4477    -1.1243 H       
  45 H45           -1.8288     1.8881    -1.1205 H       
  46 H46           -1.8439     3.1111    -2.4115 H       
  47 H47            1.9767     4.8974    -1.9705 H       
  48 H48            1.2983     6.5351    -1.8098 H       
  49 H49            0.8621     6.1184     0.5953 H       
  50 H50            1.5405     4.4807     0.4346 H       
  51 H51            3.0424     7.0936    -0.1380 H       
  52 H52            3.7208     5.4559    -0.2987 H       
  53 H53            4.9009     8.3411    -1.0573 H       
  54 H54            5.7502     6.7903    -0.8547 H       
  55 H55           -0.1453     7.4238    -0.6596 H       
  56 H56           -2.0534     8.9672    -0.8456 H       
  57 H57           -4.3493     8.0850    -0.9319 H       
  58 H58           -4.7443     5.6572    -0.8400 H       
  59 H59            2.2622     6.9684    -3.1574 H       
  60 H60            2.8899     8.4438    -2.3850 H       
  61 H61            4.2344     6.9040    -4.6523 H       
  62 H62            3.3732     8.4544    -4.8119 H       
  63 H63            4.9842     9.5288    -3.2835 H       
  64 H64            6.9406     8.2722    -2.4567 H       
  65 H65            6.3479     6.7961    -3.2570 H       
  66 H66           19.3669    16.8497    -8.5313 H       
  67 H67           16.0891    15.9282    -6.4516 H       
  68 H68           16.8131    14.3068    -6.5207 H       
  69 H69           17.4315    17.7221    -5.4787 H       
  70 H70           18.6791    17.3015    -4.2758 H       
  71 H71           20.2413    16.6723    -6.0057 H       
  72 H72           19.5660    18.2500    -6.4751 H       
  73 H73           16.6778    14.3383    -4.0414 H       
  74 H74           17.5567    15.6074    -3.1553 H       
  75 H75           16.0817    16.0154    -4.0643 H       
  76 H76            6.4261     7.9014    -5.4246 H       
  77 H77            5.4823     9.3766    -5.7430 H       
  78 H78            6.9601    10.6521    -4.2139 H       
  79 H79            7.9039     9.1769    -3.8955 H       
  80 H80            8.4778     9.0244    -6.3030 H       
  81 H81            7.5340    10.4996    -6.6214 H       
  82 H82            9.0118    11.7751    -5.0924 H       
  83 H83            9.9556    10.2999    -4.7740 H       
  84 H84           10.5295    10.1475    -7.1815 H       
  85 H85            9.5857    11.6226    -7.4999 H       
  86 H86           11.0635    12.8981    -5.9709 H       
  87 H87           12.0073    11.4229    -5.6525 H       
  88 H88           12.5812    11.2705    -8.0599 H       
  89 H89           11.6375    12.7456    -8.3784 H       
  90 H90           13.1153    14.0211    -6.8493 H       
  91 H91           14.0590    12.5459    -6.5309 H       
  92 H92           13.6892    13.8686    -9.2568 H       
  93 H93           14.6330    12.3935    -8.9384 H       
@<TRIPOS>BOND
   1    1    2 1
   2    1    6 ar
   3    1   16 ar
   4    2    3 1
   5    2   43 1
   6    2   44 1
   7    3    4 1
   8    3   45 1
   9    3   46 1
  10    4    5 am
  11    4    9 2
  12    5    6 1
  13    5    8 1
  14    6   13 ar
  15    7    8 1
  16    7   10 1
  17    7   47 1
  18    7   48 1
  19    8   49 1
  20    8   50 1
  21   10   11 1
  22   10   51 1
  23   10   52 1
  24   11   12 1
  25   11   17 1
  26   12   20 1
  27   12   53 1
  28   12   54 1
  29   13   14 ar
  30   13   55 1
  31   14   15 ar
  32   14   56 1
  33   15   16 ar
  34   15   57 1
  35   16   58 1
  36   17   18 1
  37   17   59 1
  38   17   60 1
  39   18   19 1
  40   18   61 1
  41   18   62 1
  42   19   34 1
  43   19   20 1
  44   19   63 1
  45   20   64 1
  46   20   65 1
  47   21   42 1
  48   21   22 1
  49   22   23 1
  50   22   33 2
  51   23   24 1
  52   23   31 2
  53   24   25 2
  54   24   26 1
  55   25   29 1
  56   25   66 1
  57   26   27 1
  58   26   67 1
  59   26   68 1
  60   27   28 1
  61   27   30 1
  62   28   29 1
  63   28   69 1
  64   28   70 1
  65   29   71 1
  66   29   72 1
  67   30   73 1
  68   30   74 1
  69   30   75 1
  70   31   32 1
  71   32   33 1
  72   34   35 1
  73   34   76 1
  74   34   77 1
  75   35   36 1
  76   35   78 1
  77   35   79 1
  78   36   37 1
  79   36   80 1
  80   36   81 1
  81   37   38 1
  82   37   82 1
  83   37   83 1
  84   38   39 1
  85   38   84 1
  86   38   85 1
  87   39   40 1
  88   39   86 1
  89   39   87 1
  90   40   41 1
  91   40   88 1
  92   40   89 1
  93   41   42 1
  94   41   90 1
  95   41   91 1
  96   42   92 1
  97   42   93 1

#	End of record

