#	Name: ASD01884219
#	Creating user name:	WinNT
#	Creation time:	15. 06. 2019 19:47

#	Modifying user name:	WinNT
#	Modification time:	15. 06. 2019 19:47

#	Program:	/corina/corina34_cracker 3.40 0067  02.08.2006

@<TRIPOS>MOLECULE
ASD01884219
  36   39    0    0    0
SMALL
NO_CHARGES


@<TRIPOS>ATOM
   1 C1            -0.0168     1.3908     0.0097 C.ar    
   2 C2             0.0021    -0.0041     0.0020 C.ar    
   3 C3            -1.1687    -0.7210     0.0088 C.ar    
   4 C4            -2.4131    -0.0704     0.0242 C.ar    
   5 C5            -2.4160     1.3263     0.0322 C.ar    
   6 C6            -1.2418     2.0534     0.0308 C.ar    
   7 C7             1.2524     2.1591     0.0017 C.ar    
   8 N8            -3.6712    -0.6450     0.0334 N.am    
   9 C9            -4.7415     0.1550     0.0486 C.2     
  10 S10           -4.1169     1.8126     0.0518 S.3     
  11 O11           -5.9098    -0.1864     0.0576 O.2     
  12 C12           -3.8273    -2.1016     0.0261 C.3     
  13 C13           -3.8671    -2.6174     1.4660 C.3     
  14 C14           -4.1435    -4.1077     1.6752 C.3     
  15 C15           -2.7392    -3.5491     1.9141 C.3     
  16 C16            2.2571     1.8531     0.9120 C.ar    
  17 C17            3.4482     2.5795     0.8983 C.ar    
  18 C18            3.6246     3.6094    -0.0293 C.ar    
  19 C19            2.6237     3.9084    -0.9304 C.ar    
  20 C20            1.4422     3.1877    -0.9248 C.ar    
  21 C21            4.4877     2.2704     1.8334 C.1     
  22 N22            5.3124     2.0252     2.5753 N.1     
  23 F23            0.4663     3.4860    -1.8102 F       
  24 H24            0.9478    -0.5255    -0.0098 H       
  25 H25           -1.1322    -1.8004     0.0020 H       
  26 H26           -1.2735     3.1329     0.0374 H       
  27 H27           -4.7561    -2.3650    -0.4800 H       
  28 H28           -2.9863    -2.5546    -0.4990 H       
  29 H29           -4.2693    -1.9226     2.2033 H       
  30 H30           -4.7271    -4.3933     2.5503 H       
  31 H31           -4.2969    -4.7206     0.7870 H       
  32 H32           -1.9689    -3.7946     1.1831 H       
  33 H33           -2.3991    -3.4673     2.9464 H       
  34 H34            2.1162     1.0565     1.6274 H       
  35 H35            4.5460     4.1726    -0.0407 H       
  36 H36            2.7641     4.7056    -1.6454 H       
@<TRIPOS>BOND
   1    1    2 ar
   2    1    7 1
   3    1    6 ar
   4    2    3 ar
   5    2   24 1
   6    3    4 ar
   7    3   25 1
   8    4    5 ar
   9    4    8 1
  10    5    6 ar
  11    5   10 1
  12    6   26 1
  13    7   16 ar
  14    7   20 ar
  15    8    9 am
  16    8   12 1
  17    9   10 1
  18    9   11 2
  19   12   13 1
  20   12   27 1
  21   12   28 1
  22   13   14 1
  23   13   15 1
  24   13   29 1
  25   14   15 1
  26   14   30 1
  27   14   31 1
  28   15   32 1
  29   15   33 1
  30   16   17 ar
  31   16   34 1
  32   17   18 ar
  33   17   21 1
  34   18   19 ar
  35   18   35 1
  36   19   20 ar
  37   19   36 1
  38   20   23 1
  39   21   22 3

#	End of record

