#	Name: ASD01881272
#	Creating user name:	WinNT
#	Creation time:	15. 06. 2019 19:42

#	Modifying user name:	WinNT
#	Modification time:	15. 06. 2019 19:42

#	Program:	/corina/corina34_cracker 3.40 0067  02.08.2006

@<TRIPOS>MOLECULE
ASD01881272
  41   44    0    0    0
SMALL
NO_CHARGES


@<TRIPOS>ATOM
   1 C1            -0.0162     1.3398     0.0094 C.2     
   2 N2             0.0021    -0.0041     0.0020 N.am    
   3 C3             1.3976    -0.4574    -0.0137 C.3     
   4 C4             2.2451     0.7905    -0.0151 C.ar    
   5 C5             3.6000     1.0055    -0.0269 C.ar    
   6 C6             4.0976     2.3073    -0.0247 C.ar    
   7 C7             3.2212     3.3882    -0.0100 C.ar    
   8 C8             1.8599     3.1774     0.0018 C.ar    
   9 C9             1.3562     1.8711    -0.0008 C.ar    
  10 O10           -1.0239     2.0203     0.0181 O.2     
  11 C11           -1.1772    -0.8732     0.0093 C.3     
  12 C12           -2.1368    -0.7520     1.1949 C.3     
  13 C13           -2.5439    -0.2112    -0.1772 C.3     
  14 N14            5.4707     2.5263    -0.0366 N.pl3   
  15 C15            5.9943     3.8945    -0.0343 C.3     
  16 C16            8.1900     3.8444    -1.2490 C.ar    
  17 C17            7.5008     3.8559    -0.0489 C.ar    
  18 C18            8.2136     3.8320     1.1391 C.ar    
  19 C19            9.5989     3.7972     1.0776 C.ar    
  20 C20           10.2185     3.7876    -0.1571 C.ar    
  21 N21            9.5089     3.8115    -1.2688 N.ar    
  22 C22            7.5007     3.8440     2.4668 C.3     
  23 F23            8.4416     3.8149     3.5016 F       
  24 F24            6.7286     5.0060     2.5710 F       
  25 F25            6.6700     2.7222     2.5601 F       
  26 Cl26           7.3093     3.8668    -2.7448 Cl      
  27 Cl27           0.7708     4.5292     0.0206 Cl      
  28 H28            1.6083    -1.0527     0.8747 H       
  29 H29            1.5912    -1.0431    -0.9124 H       
  30 H30            4.2804     0.1667    -0.0376 H       
  31 H31            3.6096     4.3959    -0.0076 H       
  32 H32           -1.0341    -1.8635    -0.4231 H       
  33 H33           -2.6252    -1.6625     1.5421 H       
  34 H34           -1.8906    -0.0256     1.9693 H       
  35 H35           -2.5656     0.8710    -0.3055 H       
  36 H36           -3.3002    -0.7659    -0.7327 H       
  37 H37            6.0819     1.7731    -0.0465 H       
  38 H38            5.6358     4.4222    -0.9180 H       
  39 H39            5.6528     4.4127     0.8618 H       
  40 H40           10.1860     3.7782     1.9839 H       
  41 H41           11.2968     3.7605    -0.2128 H       
@<TRIPOS>BOND
   1    1    2 am
   2    1    9 1
   3    1   10 2
   4    2    3 1
   5    2   11 1
   6    3    4 1
   7    3   28 1
   8    3   29 1
   9    4    5 ar
  10    4    9 ar
  11    5    6 ar
  12    5   30 1
  13    6    7 ar
  14    6   14 1
  15    7    8 ar
  16    7   31 1
  17    8    9 ar
  18    8   27 1
  19   11   12 1
  20   11   13 1
  21   11   32 1
  22   12   13 1
  23   12   33 1
  24   12   34 1
  25   13   35 1
  26   13   36 1
  27   14   15 1
  28   14   37 1
  29   15   17 1
  30   15   38 1
  31   15   39 1
  32   16   17 ar
  33   16   21 ar
  34   16   26 1
  35   17   18 ar
  36   18   19 ar
  37   18   22 1
  38   19   20 ar
  39   19   40 1
  40   20   21 ar
  41   20   41 1
  42   22   23 1
  43   22   24 1
  44   22   25 1

#	End of record

