#	Name: ASD08170369
#	Creating user name:	WinNT
#	Creation time:	15. 06. 2019 21:17

#	Modifying user name:	WinNT
#	Modification time:	15. 06. 2019 21:17

#	Program:	/corina/corina34_cracker 3.40 0067  02.08.2006

@<TRIPOS>MOLECULE
ASD08170369
  79   82    0    0    0
SMALL
NO_CHARGES


@<TRIPOS>ATOM
   1 C1            -0.0155     1.2910     0.0091 C.2     
   2 N2             0.0021    -0.0041     0.0020 N.2     
   3 N3            -1.1192    -0.5842     0.0096 N.2     
   4 C4            -2.1834     0.1604     0.0237 C.2     
   5 S5            -1.7028     1.8047     0.0357 S.3     
   6 C6             1.1892     2.1964     0.0025 C.3     
   7 C7             4.5555     4.7703    -3.3985 C.3     
   8 C8             4.8121     4.9823    -4.8682 C.2     
   9 C9             5.9134     5.8179    -5.4897 C.3     
  10 C10            5.6765     5.6583    -6.9786 C.2     
  11 N11            4.6389     4.8796    -7.0906 N.2     
  12 N12            4.1415     4.4842    -5.8533 N.2     
  13 N13            6.4064     6.2202    -7.9998 N.am    
  14 N14           -3.4954    -0.3008     0.0334 N.am    
  15 C15            6.0668     5.9806    -9.2819 C.2     
  16 O16            5.1176     5.2696    -9.5349 O.2     
  17 C17            6.8666     6.5963   -10.4009 C.3     
  18 C18            6.2755     6.1683   -11.7457 C.3     
  19 C19            7.0875     6.7934   -12.8818 C.3     
  20 C20            8.4870     6.2346   -12.8655 C.2     
  21 C21           -3.7441    -1.6254     0.0287 C.2     
  22 C22           -5.1658    -2.1251     0.0391 C.3     
  23 O23           -2.8238    -2.4152     0.0161 O.2     
  24 C24           -5.1687    -3.6551     0.0311 C.3     
  25 C25           -6.6120    -4.1625     0.0417 C.3     
  26 C26           -7.2969    -3.7558    -1.2376 C.2     
  27 C27            1.5828     2.5110    -1.4422 C.3     
  28 C28            3.3418     3.8560    -3.2193 C.3     
  29 C29            6.4341     6.4732   -14.2015 C.ar    
  30 C30           -6.6155    -5.6650     0.1577 C.ar    
  31 C31            5.9962     7.4958   -15.0221 C.ar    
  32 O32            8.8025     5.4199   -12.0308 O.2     
  33 O33            9.3830     6.6418   -13.7783 O.3     
  34 C34            5.3968     7.2021   -16.2326 C.ar    
  35 C35            5.2357     5.8857   -16.6227 C.ar    
  36 C36            5.6744     4.8631   -15.8025 C.ar    
  37 C37            6.2777     5.1570   -14.5940 C.ar    
  38 C38           -7.2360    -6.2739     1.2325 C.ar    
  39 C39           -7.2392    -7.6521     1.3389 C.ar    
  40 C40           -6.6222    -8.4215     0.3703 C.ar    
  41 C41           -6.0025    -7.8127    -0.7050 C.ar    
  42 C42           -6.0031    -6.4346    -0.8136 C.ar    
  43 O43           -6.6925    -3.1249    -2.0722 O.2     
  44 O44           -8.5783    -4.0945    -1.4499 O.3     
  45 S45            3.0330     3.6007    -1.4501 S.3     
  46 H46            0.9501     3.1232     0.5240 H       
  47 H47            2.0193     1.7002     0.5054 H       
  48 H48            5.4296     4.3078    -2.9400 H       
  49 H49            4.3604     5.7307    -2.9214 H       
  50 H50            5.8157     6.8628    -5.1950 H       
  51 H51            6.8934     5.4294    -5.2127 H       
  52 H52            7.1657     6.7889    -7.7974 H       
  53 H53           -4.2314     0.3309     0.0435 H       
  54 H54            6.8314     7.6825   -10.3178 H       
  55 H55            7.9014     6.2602   -10.3355 H       
  56 H56            6.3108     5.0820   -11.8288 H       
  57 H57            5.2407     6.5043   -11.8111 H       
  58 H58            7.1264     7.8745   -12.7485 H       
  59 H59           -5.6707    -1.7656     0.9357 H       
  60 H60           -5.6871    -1.7562    -0.8442 H       
  61 H61           -4.6637    -4.0147    -0.8654 H       
  62 H62           -4.6473    -4.0241     0.9144 H       
  63 H63           -7.1425    -3.7313     0.8907 H       
  64 H64            1.8219     1.5842    -1.9637 H       
  65 H65            0.7527     3.0071    -1.9450 H       
  66 H66            2.4677     4.3185    -3.6778 H       
  67 H67            3.5369     2.8955    -3.6964 H       
  68 H68            6.1221     8.5242   -14.7173 H       
  69 H69           10.2679     6.2552   -13.7278 H       
  70 H70            5.0540     8.0010   -16.8734 H       
  71 H71            4.7667     5.6562   -17.5681 H       
  72 H72            5.5482     3.8347   -16.1071 H       
  73 H73            6.6205     4.3580   -13.9532 H       
  74 H74           -7.7181    -5.6727     1.9893 H       
  75 H75           -7.7233    -8.1277     2.1790 H       
  76 H76           -6.6240    -9.4983     0.4538 H       
  77 H77           -5.5201    -8.4138    -1.4616 H       
  78 H78           -5.5189    -5.9590    -1.6537 H       
  79 H79           -8.9746    -3.8113    -2.2853 H       
@<TRIPOS>BOND
   1    1    2 2
   2    1    6 1
   3    1    5 1
   4    2    3 1
   5    3    4 2
   6    4    5 1
   7    4   14 1
   8    6   27 1
   9    6   46 1
  10    6   47 1
  11    7    8 1
  12    7   28 1
  13    7   48 1
  14    7   49 1
  15    8    9 1
  16    8   12 2
  17    9   10 1
  18    9   50 1
  19    9   51 1
  20   10   11 2
  21   10   13 1
  22   11   12 1
  23   13   15 am
  24   13   52 1
  25   14   21 am
  26   14   53 1
  27   15   16 2
  28   15   17 1
  29   17   18 1
  30   17   54 1
  31   17   55 1
  32   18   19 1
  33   18   56 1
  34   18   57 1
  35   19   29 1
  36   19   20 1
  37   19   58 1
  38   20   32 2
  39   20   33 1
  40   21   22 1
  41   21   23 2
  42   22   24 1
  43   22   59 1
  44   22   60 1
  45   24   25 1
  46   24   61 1
  47   24   62 1
  48   25   26 1
  49   25   30 1
  50   25   63 1
  51   26   43 2
  52   26   44 1
  53   27   45 1
  54   27   64 1
  55   27   65 1
  56   28   45 1
  57   28   66 1
  58   28   67 1
  59   29   31 ar
  60   29   37 ar
  61   30   38 ar
  62   30   42 ar
  63   31   34 ar
  64   31   68 1
  65   33   69 1
  66   34   35 ar
  67   34   70 1
  68   35   36 ar
  69   35   71 1
  70   36   37 ar
  71   36   72 1
  72   37   73 1
  73   38   39 ar
  74   38   74 1
  75   39   40 ar
  76   39   75 1
  77   40   41 ar
  78   40   76 1
  79   41   42 ar
  80   41   77 1
  81   42   78 1
  82   44   79 1

#	End of record

