#	Name: ASD03091850
#	Creating user name:	WinNT
#	Creation time:	15. 06. 2019 20:31

#	Modifying user name:	WinNT
#	Modification time:	15. 06. 2019 20:31

#	Program:	/corina/corina34_cracker 3.40 0067  02.08.2006

@<TRIPOS>MOLECULE
ASD03091850
  45   49    0    0    0
SMALL
NO_CHARGES


@<TRIPOS>ATOM
   1 N1             0.0829     1.2210    -1.2662 N.pl3   
   2 C2             0.0754    -0.1097    -0.9479 C.2     
   3 C3             1.3177    -0.5139    -0.6400 C.2     
   4 C4             2.1925     0.6541    -0.7721 C.ar    
   5 C5             3.5590     0.8658    -0.5910 C.ar    
   6 C6             4.0871     2.1316    -0.8054 C.ar    
   7 C7             3.2520     3.1830    -1.1991 C.ar    
   8 C8             1.9143     2.9806    -1.3775 C.ar    
   9 C9             1.3625     1.7194    -1.1688 C.ar    
  10 C10            5.5386     2.3700    -0.6163 C.ar    
  11 C11            6.0627     3.6433    -0.8332 C.ar    
  12 C12            7.4175     3.8532    -0.6532 C.ar    
  13 C13            8.2095     2.7774    -0.2599 C.ar    
  14 C14            7.6193     1.5372    -0.0623 C.ar    
  15 N15            6.3243     1.3707    -0.2372 N.ar    
  16 O16            9.5457     2.9402    -0.0723 O.3     
  17 C17           11.9667     5.7724     0.3957 C.3     
  18 C18           11.3463     4.3873     0.6394 C.3     
  19 C19           10.0589     4.2694    -0.1815 C.3     
  20 C20           10.3525     4.5829    -1.6514 C.3     
  21 C21           11.0403     5.9547    -1.7398 C.3     
  22 C22           10.2317     6.9459    -0.8714 C.3     
  23 C23           10.8439     6.8254     0.5397 C.3     
  24 N24           12.3475     5.8383    -1.0404 N.3     
  25 H25           -0.6971     1.7359    -1.5261 H       
  26 H26           -0.8006    -0.7414    -0.9448 H       
  27 H27            1.6159    -1.5106    -0.3500 H       
  28 H28            4.2007     0.0522    -0.2863 H       
  29 H29            3.6704     4.1650    -1.3632 H       
  30 H30            1.2815     3.8013    -1.6816 H       
  31 H31            5.4190     4.4551    -1.1381 H       
  32 H32            7.8516     4.8290    -0.8142 H       
  33 H33            8.2285     0.6992     0.2427 H       
  34 H34           12.8052     5.9699     1.0636 H       
  35 H35           12.0486     3.6132     0.3302 H       
  36 H36           11.1159     4.2717     1.6985 H       
  37 H37            9.3206     4.9755     0.1986 H       
  38 H38           11.0102     3.8176    -2.0636 H       
  39 H39            9.4188     4.6057    -2.2133 H       
  40 H40           11.1422     6.2972    -2.7695 H       
  41 H41           10.3462     7.9619    -1.2491 H       
  42 H42            9.1791     6.6633    -0.8536 H       
  43 H43           10.0923     6.4837     1.2514 H       
  44 H44           11.2595     7.7822     0.8558 H       
  45 H45           12.9286     6.6425    -1.2238 H       
@<TRIPOS>BOND
   1    1    2 1
   2    1    9 1
   3    1   25 1
   4    2    3 2
   5    2   26 1
   6    3    4 1
   7    3   27 1
   8    4    5 ar
   9    4    9 ar
  10    5    6 ar
  11    5   28 1
  12    6    7 ar
  13    6   10 1
  14    7    8 ar
  15    7   29 1
  16    8    9 ar
  17    8   30 1
  18   10   11 ar
  19   10   15 ar
  20   11   12 ar
  21   11   31 1
  22   12   13 ar
  23   12   32 1
  24   13   14 ar
  25   13   16 1
  26   14   15 ar
  27   14   33 1
  28   16   19 1
  29   17   18 1
  30   17   23 1
  31   17   24 1
  32   17   34 1
  33   18   19 1
  34   18   35 1
  35   18   36 1
  36   19   20 1
  37   19   37 1
  38   20   21 1
  39   20   38 1
  40   20   39 1
  41   21   22 1
  42   21   24 1
  43   21   40 1
  44   22   23 1
  45   22   41 1
  46   22   42 1
  47   23   43 1
  48   23   44 1
  49   24   45 1

#	End of record

