#	Name: ASD03082049
#	Creating user name:	WinNT
#	Creation time:	15. 06. 2019 20:27

#	Modifying user name:	WinNT
#	Modification time:	15. 06. 2019 20:27

#	Program:	/corina/corina34_cracker 3.40 0067  02.08.2006

@<TRIPOS>MOLECULE
ASD03082049
  62   66    0    0    0
SMALL
NO_CHARGES


@<TRIPOS>ATOM
   1 C1            -2.1910     2.0827    -2.0858 C.3     
   2 N2            -1.7450     0.7304    -1.6936 N.3     
   3 C3            -1.2667    -0.0232    -2.8589 C.3     
   4 C4            -2.3592    -0.1089    -3.9275 C.3     
   5 C5            -2.8227     1.3198    -4.2720 C.3     
   6 C6            -3.4493     1.8972    -2.9741 C.3     
   7 C7            -1.5490     2.1736    -4.4705 C.3     
   8 C8            -1.1372     2.6585    -3.0582 C.3     
   9 O9            -1.9057     3.3753    -5.1831 O.3     
  10 O10           -1.2892     4.0923    -3.1029 O.3     
  11 C11           -1.1901     4.4290    -4.5032 C.3     
  12 C12            0.2747     4.4500    -4.9445 C.3     
  13 C13           -1.8496     5.7827    -4.7742 C.3     
  14 C14           -0.7126     0.7984    -0.6508 C.3     
  15 C15           -1.3464     1.2531     0.6655 C.3     
  16 O16           -1.8280    -0.7493    -5.1175 O.3     
  17 C17           -1.9381    -2.0902    -5.1914 C.2     
  18 C18           -1.4207    -2.8087    -6.3711 C.ar    
  19 O19           -2.4636    -2.7075    -4.2864 O.2     
  20 C20           -0.9411    -2.0978    -7.4718 C.ar    
  21 C21           -0.4579    -2.7751    -8.5722 C.ar    
  22 C22           -0.4451    -4.1598    -8.5931 C.ar    
  23 C23           -0.9160    -4.8802    -7.5134 C.ar    
  24 C24           -1.4021    -4.2156    -6.3915 C.ar    
  25 C25           -1.9084    -4.9847    -5.2305 C.ar    
  26 C26           -2.9815    -5.8614    -5.3859 C.ar    
  27 C27           -3.4483    -6.5752    -4.3011 C.ar    
  28 C28           -2.8540    -6.4222    -3.0613 C.ar    
  29 C29           -1.7890    -5.5540    -2.9010 C.ar    
  30 C30           -1.3097    -4.8390    -3.9796 C.ar    
  31 C31           -0.0848    -0.5843    -0.4637 C.3     
  32 H32           -2.3644     2.7298    -1.2259 H       
  33 H33           -0.3932     0.4771    -3.2770 H       
  34 H34           -0.9889    -1.0300    -2.5469 H       
  35 H35           -3.2017    -0.6845    -3.5441 H       
  36 H36           -3.5040     1.3494    -5.1223 H       
  37 H37           -4.1443     1.1875    -2.5254 H       
  38 H38           -3.9374     2.8526    -3.1663 H       
  39 H39           -0.7595     1.6176    -4.9761 H       
  40 H40           -0.1259     2.3475    -2.7959 H       
  41 H41            0.3279     4.6213    -6.0196 H       
  42 H42            0.7999     5.2499    -4.4226 H       
  43 H43            0.7399     3.4936    -4.7056 H       
  44 H44           -2.8788     5.7638    -4.4156 H       
  45 H45           -1.2981     6.5661    -4.2545 H       
  46 H46           -1.8419     5.9826    -5.8457 H       
  47 H47            0.0578     1.5100    -0.9480 H       
  48 H48           -2.1167     0.5415     0.9627 H       
  49 H49           -0.5803     1.3036     1.4393 H       
  50 H50           -1.7936     2.2382     0.5322 H       
  51 H51           -0.9485    -1.0179    -7.4624 H       
  52 H52           -0.0877    -2.2221    -9.4228 H       
  53 H53           -0.0645    -4.6796    -9.4599 H       
  54 H54           -0.9032    -5.9599    -7.5378 H       
  55 H55           -3.4467    -5.9811    -6.3532 H       
  56 H56           -4.2794    -7.2545    -4.4202 H       
  57 H57           -3.2232    -6.9825    -2.2151 H       
  58 H58           -1.3292    -5.4384    -1.9306 H       
  59 H59           -0.4782    -4.1614    -3.8533 H       
  60 H60           -0.8725    -1.3264    -0.3342 H       
  61 H61            0.5100    -0.8351    -1.3420 H       
  62 H62            0.5554    -0.5763     0.4185 H       
@<TRIPOS>BOND
   1    1    2 1
   2    1    8 1
   3    1    6 1
   4    1   32 1
   5    2    3 1
   6    2   14 1
   7    3    4 1
   8    3   33 1
   9    3   34 1
  10    4    5 1
  11    4   16 1
  12    4   35 1
  13    5    6 1
  14    5    7 1
  15    5   36 1
  16    6   37 1
  17    6   38 1
  18    7    9 1
  19    7    8 1
  20    7   39 1
  21    8   10 1
  22    8   40 1
  23    9   11 1
  24   10   11 1
  25   11   12 1
  26   11   13 1
  27   12   41 1
  28   12   42 1
  29   12   43 1
  30   13   44 1
  31   13   45 1
  32   13   46 1
  33   14   15 1
  34   14   31 1
  35   14   47 1
  36   15   48 1
  37   15   49 1
  38   15   50 1
  39   16   17 1
  40   17   18 1
  41   17   19 2
  42   18   20 ar
  43   18   24 ar
  44   20   21 ar
  45   20   51 1
  46   21   22 ar
  47   21   52 1
  48   22   23 ar
  49   22   53 1
  50   23   24 ar
  51   23   54 1
  52   24   25 1
  53   25   26 ar
  54   25   30 ar
  55   26   27 ar
  56   26   55 1
  57   27   28 ar
  58   27   56 1
  59   28   29 ar
  60   28   57 1
  61   29   30 ar
  62   29   58 1
  63   30   59 1
  64   31   60 1
  65   31   61 1
  66   31   62 1

#	End of record

