#	Name: ASD01890027
#	Creating user name:	WinNT
#	Creation time:	15. 06. 2019 19:50

#	Modifying user name:	WinNT
#	Modification time:	15. 06. 2019 19:50

#	Program:	/corina/corina34_cracker 3.40 0067  02.08.2006

@<TRIPOS>MOLECULE
ASD01890027
  33   36    0    0    0
SMALL
NO_CHARGES


@<TRIPOS>ATOM
   1 C1            -0.0156     1.2979     0.0092 C.2     
   2 N2             0.0021    -0.0041     0.0020 N.2     
   3 C3             1.2811    -0.4377    -0.0244 C.ar    
   4 C4             2.1190     0.7053    -0.0283 C.ar    
   5 N5             1.2815     1.7889    -0.0006 N.am    
   6 C6             1.8254    -1.7255    -0.0467 C.ar    
   7 C7             3.2059    -1.8246    -0.0733 C.ar    
   8 C8             4.0205    -0.7070    -0.0774 C.ar    
   9 C9             3.5019     0.5803    -0.0555 C.ar    
  10 N10           -1.1023     2.1569     0.0122 N.pl3   
  11 C11           -0.8521     3.5184    -0.4983 C.3     
  12 C12            0.4056     4.0827     0.1676 C.3     
  13 C13            1.5526     3.1093     0.0259 C.2     
  14 O14            2.6940     3.5077    -0.0620 O.2     
  15 C15           -0.6517     3.4674    -1.9911 C.ar    
  16 C16           -1.1940     4.4526    -2.7950 C.ar    
  17 C17           -1.0106     4.4064    -4.1642 C.ar    
  18 C18           -0.2841     3.3739    -4.7300 C.ar    
  19 C19            0.2584     2.3882    -3.9249 C.ar    
  20 C20            0.0791     2.4386    -2.5554 C.ar    
  21 Cl21          -0.0537     3.3149    -6.4497 Cl      
  22 Cl22           4.5372     1.9738    -0.0621 Cl      
  23 H23            1.1969    -2.6038    -0.0431 H       
  24 H24            3.6605    -2.8041    -0.0911 H       
  25 H25            5.0921    -0.8399    -0.0985 H       
  26 H26           -1.9757     1.8797     0.3305 H       
  27 H27           -1.7047     4.1567    -0.2662 H       
  28 H28            0.6727     5.0270    -0.3068 H       
  29 H29            0.2075     4.2559     1.2253 H       
  30 H30           -1.7615     5.2584    -2.3532 H       
  31 H31           -1.4346     5.1760    -4.7922 H       
  32 H32            0.8257     1.5820    -4.3661 H       
  33 H33            0.5062     1.6716    -1.9263 H       
@<TRIPOS>BOND
   1    1    2 2
   2    1    5 1
   3    1   10 1
   4    2    3 1
   5    3    4 ar
   6    3    6 ar
   7    4    5 1
   8    4    9 ar
   9    5   13 am
  10    6    7 ar
  11    6   23 1
  12    7    8 ar
  13    7   24 1
  14    8    9 ar
  15    8   25 1
  16    9   22 1
  17   10   11 1
  18   10   26 1
  19   11   12 1
  20   11   15 1
  21   11   27 1
  22   12   13 1
  23   12   28 1
  24   12   29 1
  25   13   14 2
  26   15   16 ar
  27   15   20 ar
  28   16   17 ar
  29   16   30 1
  30   17   18 ar
  31   17   31 1
  32   18   19 ar
  33   18   21 1
  34   19   20 ar
  35   19   32 1
  36   20   33 1

#	End of record

