#	Name: ASD03330107
#	Creating user name:	WinNT
#	Creation time:	15. 06. 2019 20:36

#	Modifying user name:	WinNT
#	Modification time:	15. 06. 2019 20:36

#	Program:	/corina/corina34_cracker 3.40 0067  02.08.2006

@<TRIPOS>MOLECULE
ASD03330107
  46   47    0    0    0
SMALL
NO_CHARGES


@<TRIPOS>ATOM
   1 N1            -0.0600     1.3966     0.0140 N.3     
   2 C2            -0.0081    -0.0706    -0.0166 C.3     
   3 C3             0.6907    -0.5310    -1.2980 C.3     
   4 C4             2.1071     0.0495    -1.3379 C.3     
   5 C5             2.0269     1.5764    -1.2559 C.3     
   6 C6             1.2894     1.9757     0.0242 C.3     
   7 C7             2.9001    -0.4766    -0.1694 C.2     
   8 O8             3.4625     0.2950     0.5785 O.2     
   9 N9             2.9843    -1.8046     0.0447 N.am    
  10 C10            2.7794    -0.3512    -2.6257 C.ar    
  11 C11            4.0329     0.1436    -2.9340 C.ar    
  12 C12            4.6496    -0.2239    -4.1153 C.ar    
  13 C13            4.0131    -1.0864    -4.9881 C.ar    
  14 C14            2.7600    -1.5819    -4.6794 C.ar    
  15 C15            2.1451    -1.2178    -3.4960 C.ar    
  16 C16           -0.8455     1.8718     1.1609 C.3     
  17 C17           -0.6755     3.3624     1.3031 C.ar    
  18 C18           -1.5394     4.2219     0.6505 C.ar    
  19 C19           -1.3835     5.5892     0.7810 C.ar    
  20 C20           -0.3640     6.0970     1.5644 C.ar    
  21 C21            0.4993     5.2375     2.2177 C.ar    
  22 C22            0.3407     3.8701     2.0907 C.ar    
  23 H23            0.5461    -0.4325     0.8494 H       
  24 H24           -1.0218    -0.4705     0.0080 H       
  25 H25            0.7430    -1.6196    -1.3129 H       
  26 H26            0.1295    -0.1811    -2.1644 H       
  27 H27            3.0339     1.9933    -1.2409 H       
  28 H28            1.4868     1.9594    -2.1217 H       
  29 H29            1.2181     3.0620     0.0784 H       
  30 H30            1.8375     1.6041     0.8900 H       
  31 H31            2.4768    -2.4183    -0.5093 H       
  32 H32            3.5523    -2.1467     0.7526 H       
  33 H33            4.5302     0.8174    -2.2521 H       
  34 H34            5.6286     0.1632    -4.3565 H       
  35 H35            4.4946    -1.3730    -5.9114 H       
  36 H36            2.2626    -2.2555    -5.3614 H       
  37 H37            1.1677    -1.6078    -3.2531 H       
  38 H38           -1.8984     1.6397     1.0013 H       
  39 H39           -0.4981     1.3782     2.0686 H       
  40 H40           -2.3359     3.8252     0.0385 H       
  41 H41           -2.0580     6.2608     0.2706 H       
  42 H42           -0.2418     7.1653     1.6657 H       
  43 H43            1.2960     5.6342     2.8294 H       
  44 H44            1.0129     3.1986     2.6041 H       
  45 Cl45          10.6286    12.1653     7.8294 Cl      
  46 H46           10.6286    13.5353     7.8294 H       
@<TRIPOS>BOND
   1    1    2 1
   2    1    6 1
   3    1   16 1
   4    2    3 1
   5    2   23 1
   6    2   24 1
   7    3    4 1
   8    3   25 1
   9    3   26 1
  10    4    5 1
  11    4    7 1
  12    4   10 1
  13    5    6 1
  14    5   27 1
  15    5   28 1
  16    6   29 1
  17    6   30 1
  18    7    8 2
  19    7    9 am
  20    9   31 1
  21    9   32 1
  22   10   11 ar
  23   10   15 ar
  24   11   12 ar
  25   11   33 1
  26   12   13 ar
  27   12   34 1
  28   13   14 ar
  29   13   35 1
  30   14   15 ar
  31   14   36 1
  32   15   37 1
  33   16   17 1
  34   16   38 1
  35   16   39 1
  36   17   18 ar
  37   17   22 ar
  38   18   19 ar
  39   18   40 1
  40   19   20 ar
  41   19   41 1
  42   20   21 ar
  43   20   42 1
  44   21   22 ar
  45   21   43 1
  46   22   44 1
  47   45   46 1

#	End of record

