#	Name: ASD01913213
#	Creating user name:	WinNT
#	Creation time:	15. 06. 2019 20:01

#	Modifying user name:	WinNT
#	Modification time:	15. 06. 2019 20:01

#	Program:	/corina/corina34_cracker 3.40 0067  02.08.2006

@<TRIPOS>MOLECULE
ASD01913213
  47   50    0    0    0
SMALL
NO_CHARGES


@<TRIPOS>ATOM
   1 N1            -0.6664     2.4324    -2.0367 N.ar    
   2 C2            -0.9057     1.2662    -2.5947 C.ar    
   3 C3             0.0961     0.3181    -2.7048 C.ar    
   4 C4             1.3553     0.6184    -2.2111 C.ar    
   5 C5             1.5671     1.8626    -1.6266 C.ar    
   6 C6             2.9393     2.1649    -1.0825 C.3     
   7 N7             3.0379     3.5924    -0.7582 N.am    
   8 C8             1.9013     4.2042    -0.0502 C.3     
   9 C9             0.6834     4.1405    -0.9702 C.3     
  10 C10            0.5276     2.7619    -1.5586 C.ar    
  11 C11            4.1252     4.3143    -1.0945 C.2     
  12 O12            4.1372     5.5162    -0.9119 O.2     
  13 C13            5.3017     3.6455    -1.6847 C.ar    
  14 C14            6.0615     4.2986    -2.6542 C.ar    
  15 C15            7.1706     3.6624    -3.2075 C.ar    
  16 C16            7.5147     2.3679    -2.7843 C.ar    
  17 C17            6.7512     1.7278    -1.8188 C.ar    
  18 C18            5.6574     2.3591    -1.2672 C.ar    
  19 C19            7.9565     4.3254    -4.2041 C.1     
  20 C20            8.6008     4.8690    -5.0212 C.1     
  21 C21            9.3868     5.5320    -6.0179 C.ar    
  22 C22           10.4979     4.8868    -6.5679 C.ar    
  23 C23           11.2459     5.5408    -7.5295 C.ar    
  24 C24           10.8620     6.8191    -7.9130 C.ar    
  25 C25            9.7515     7.3995    -7.3283 C.ar    
  26 N26            9.0511     6.7551    -6.4175 N.ar    
  27 O27            8.5929     1.7438    -3.3198 O.3     
  28 C28            8.8844     0.4286    -2.8428 C.3     
  29 Cl29          -0.2191    -1.2192    -3.4471 Cl      
  30 H30           -1.8939     1.0460    -2.9705 H       
  31 H31            2.1580    -0.1009    -2.2786 H       
  32 H32            3.1103     1.5755    -0.1816 H       
  33 H33            3.6903     1.9099    -1.8302 H       
  34 H34            1.6989     3.6526     0.8679 H       
  35 H35            2.1306     5.2432     0.1864 H       
  36 H36           -0.2109     4.3895    -0.3989 H       
  37 H37            0.8053     4.8633    -1.7770 H       
  38 H38            5.7912     5.2937    -2.9753 H       
  39 H39            7.0175     0.7324    -1.4953 H       
  40 H40            5.0703     1.8568    -0.5126 H       
  41 H41           10.7686     3.8919    -6.2463 H       
  42 H42           12.1099     5.0679    -7.9725 H       
  43 H43           11.4263     7.3556    -8.6615 H       
  44 H44            9.4519     8.3937    -7.6251 H       
  45 H45            9.7688     0.0453    -3.3517 H       
  46 H46            9.0699     0.4643    -1.7693 H       
  47 H47            8.0370    -0.2268    -3.0435 H       
@<TRIPOS>BOND
   1    1    2 ar
   2    1   10 ar
   3    2    3 ar
   4    2   30 1
   5    3    4 ar
   6    3   29 1
   7    4    5 ar
   8    4   31 1
   9    5    6 1
  10    5   10 ar
  11    6    7 1
  12    6   32 1
  13    6   33 1
  14    7    8 1
  15    7   11 am
  16    8    9 1
  17    8   34 1
  18    8   35 1
  19    9   10 1
  20    9   36 1
  21    9   37 1
  22   11   12 2
  23   11   13 1
  24   13   14 ar
  25   13   18 ar
  26   14   15 ar
  27   14   38 1
  28   15   16 ar
  29   15   19 1
  30   16   17 ar
  31   16   27 1
  32   17   18 ar
  33   17   39 1
  34   18   40 1
  35   19   20 3
  36   20   21 1
  37   21   22 ar
  38   21   26 ar
  39   22   23 ar
  40   22   41 1
  41   23   24 ar
  42   23   42 1
  43   24   25 ar
  44   24   43 1
  45   25   26 ar
  46   25   44 1
  47   27   28 1
  48   28   45 1
  49   28   46 1
  50   28   47 1

#	End of record

