#	Name: ASD08070211
#	Creating user name:	WinNT
#	Creation time:	15. 06. 2019 21:14

#	Modifying user name:	WinNT
#	Modification time:	15. 06. 2019 21:14

#	Program:	/corina/corina34_cracker 3.40 0067  02.08.2006

@<TRIPOS>MOLECULE
ASD08070211
  31   31    0    0    0
SMALL
NO_CHARGES


@<TRIPOS>ATOM
   1 C1            -0.0167     1.3805     0.0096 C.ar    
   2 C2             0.0021    -0.0041     0.0020 C.ar    
   3 C3            -1.1849    -0.7157     0.0100 C.ar    
   4 C4            -2.4055    -0.0329     0.0258 C.ar    
   5 C5            -2.4163     1.3658     0.0334 C.ar    
   6 C6            -1.2211     2.0635     0.0306 C.ar    
   7 C7            -3.6754    -0.7843     0.0339 C.2     
   8 N8            -4.2667    -1.1208    -1.1296 N.am    
   9 F9            -3.5905     2.0338     0.0486 F       
  10 O10           -4.1883    -1.0998     1.0901 O.2     
  11 C11           -5.5275    -1.8668    -1.1215 C.3     
  12 C12           -4.9732    -3.0334    -3.2602 C.3     
  13 C13           -5.9805    -2.1182    -2.5611 C.3     
  14 F14           -1.2295     3.4145     0.0379 F       
  15 C15            1.2803     2.1479     0.0014 C.3     
  16 F16            1.1820    -0.6619    -0.0137 F       
  17 F17           -1.1646    -2.0666     0.0021 F       
  18 C18           -7.3568    -2.7865    -2.5534 C.3     
  19 H19           -3.8575    -0.8690    -1.9722 H       
  20 H20           -5.3821    -2.8206    -0.6145 H       
  21 H21           -6.2883    -1.2888    -0.5970 H       
  22 H22           -3.9927    -2.5573    -3.2658 H       
  23 H23           -4.9134    -3.9822    -2.7272 H       
  24 H24           -5.2959    -3.2125    -4.2859 H       
  25 H25           -6.0403    -1.1694    -3.0942 H       
  26 H26            1.5831     2.3384    -1.0282 H       
  27 H27            1.1447     3.0961     0.5216 H       
  28 H28            2.0510     1.5642     0.5047 H       
  29 H29           -7.2970    -3.7354    -2.0203 H       
  30 H30           -8.0744    -2.1345    -2.0553 H       
  31 H31           -7.6795    -2.9656    -3.5790 H       
@<TRIPOS>BOND
   1    1    2 ar
   2    1   15 1
   3    1    6 ar
   4    2    3 ar
   5    2   16 1
   6    3    4 ar
   7    3   17 1
   8    4    5 ar
   9    4    7 1
  10    5    6 ar
  11    5    9 1
  12    6   14 1
  13    7    8 am
  14    7   10 2
  15    8   11 1
  16    8   19 1
  17   11   13 1
  18   11   20 1
  19   11   21 1
  20   12   13 1
  21   12   22 1
  22   12   23 1
  23   12   24 1
  24   13   18 1
  25   13   25 1
  26   15   26 1
  27   15   27 1
  28   15   28 1
  29   18   29 1
  30   18   30 1
  31   18   31 1

#	End of record

