#	Name: ASD01912204
#	Creating user name:	WinNT
#	Creation time:	15. 06. 2019 19:59

#	Modifying user name:	WinNT
#	Modification time:	15. 06. 2019 19:59

#	Program:	/corina/corina34_cracker 3.40 0067  02.08.2006

@<TRIPOS>MOLECULE
ASD01912204
  32   33    0    0    0
SMALL
NO_CHARGES


@<TRIPOS>ATOM
   1 C1            -0.0167     1.3791     0.0096 C.ar    
   2 C2             0.0021    -0.0041     0.0020 C.ar    
   3 C3             1.2202    -0.6700    -0.0132 C.ar    
   4 C4             2.3829     0.0790    -0.0202 C.ar    
   5 C5             2.2916     1.4735    -0.0119 C.ar    
   6 N6             1.1034     2.0714     0.0026 N.ar    
   7 C7             3.4855     2.2642    -0.0190 C.1     
   8 C8             4.4642     2.9125    -0.0248 C.1     
   9 C9             5.6581     3.7033    -0.0320 C.2     
  10 N10            5.4053     7.6840    -0.9187 N.3     
  11 C11            6.6646     6.9574    -1.1238 C.3     
  12 C12            6.8224     5.8936    -0.0313 C.3     
  13 C13            5.5764     5.0331    -0.0241 C.2     
  14 C14            4.2344     5.7345    -0.0080 C.3     
  15 C15            4.2410     6.8084    -1.1020 C.3     
  16 C16           -1.3378     2.1040     0.0198 C.3     
  17 H17           -0.9231    -0.5612     0.0082 H       
  18 H18            1.2589    -1.7493    -0.0190 H       
  19 H19            3.3474    -0.4068    -0.0317 H       
  20 H20            6.6247     3.2217    -0.0438 H       
  21 H21            5.3863     8.1258    -0.0118 H       
  22 H22            6.6512     6.4754    -2.1013 H       
  23 H23            7.4998     7.6561    -1.0742 H       
  24 H24            7.6948     5.2755    -0.2434 H       
  25 H25            6.9408     6.3772     0.9383 H       
  26 H26            3.4406     5.0139    -0.2051 H       
  27 H27            4.0750     6.2010     0.9641 H       
  28 H28            3.3277     7.3996    -1.0366 H       
  29 H29            4.2959     6.3306    -2.0801 H       
  30 H30           -1.6515     2.2732     1.0499 H       
  31 H31           -1.2307     3.0618    -0.4894 H       
  32 H32           -2.0869     1.5014    -0.4938 H       
@<TRIPOS>BOND
   1    1    2 ar
   2    1    6 ar
   3    1   16 1
   4    2    3 ar
   5    2   17 1
   6    3    4 ar
   7    3   18 1
   8    4    5 ar
   9    4   19 1
  10    5    6 ar
  11    5    7 1
  12    7    8 3
  13    8    9 1
  14    9   13 2
  15    9   20 1
  16   10   11 1
  17   10   15 1
  18   10   21 1
  19   11   12 1
  20   11   22 1
  21   11   23 1
  22   12   13 1
  23   12   24 1
  24   12   25 1
  25   13   14 1
  26   14   15 1
  27   14   26 1
  28   14   27 1
  29   15   28 1
  30   15   29 1
  31   16   30 1
  32   16   31 1
  33   16   32 1

#	End of record

