#	Name: ASD03330531
#	Creating user name:	WinNT
#	Creation time:	15. 06. 2019 20:37

#	Modifying user name:	WinNT
#	Modification time:	15. 06. 2019 20:37

#	Program:	/corina/corina34_cracker 3.40 0067  02.08.2006

@<TRIPOS>MOLECULE
ASD03330531
  66   68    0    0    0
SMALL
NO_CHARGES


@<TRIPOS>ATOM
   1 C1            -0.2419     1.7206     0.7577 C.2     
   2 N2            -0.4818     0.4099     0.9970 N.pl3   
   3 C3             1.1084     1.8963     0.7986 C.2     
   4 N4             1.6726     0.6937     1.0435 N.2     
   5 C5             0.7246    -0.2064     1.1584 C.2     
   6 C6             0.9298    -1.6481     1.4201 C.ar    
   7 C7             1.8250     3.1699     0.6087 C.2     
   8 O8             1.2021     4.1918     0.3923 O.2     
   9 C9             3.8832     4.4683     0.4863 C.3     
  10 N10            3.1708     3.2022     0.6750 N.am    
  11 C11            4.0973     4.7152    -1.0084 C.3     
  12 C12            2.7425     4.7514    -1.7184 C.3     
  13 C13            4.8131     6.0528    -1.2070 C.3     
  14 C14            4.9503     3.5883    -1.5944 C.3     
  15 C15            5.2190     4.4014     1.1807 C.2     
  16 N16            5.9460     5.5232     1.3529 N.am    
  17 O17            5.6399     3.3381     1.5846 O.2     
  18 C18            7.2755     5.4479     1.9636 C.3     
  19 C19            2.1026    -2.2763     1.0002 C.ar    
  20 C20           -0.0463    -2.3837     2.0927 C.ar    
  21 C21            0.1509    -3.7279     2.3336 C.ar    
  22 C22            1.3138    -4.3462     1.9101 C.ar    
  23 C23            2.2879    -3.6210     1.2472 C.ar    
  24 C24           -1.8069    -0.2109     1.0782 C.3     
  25 C25           -2.6537     0.2533    -0.1109 C.3     
  26 C26           -3.3677     1.5543     0.2419 C.3     
  27 N27           -2.5466     2.3803     1.1296 N.3     
  28 C28           -1.2863     2.7710     0.4808 C.3     
  29 C29           -3.2908     3.5609     1.5880 C.3     
  30 C30           -3.8456     4.3154     0.3781 C.3     
  31 C31           -4.4470     3.1177     2.4867 C.3     
  32 H32            3.2947     5.2829     0.9085 H       
  33 H33            3.6676     2.3872     0.8477 H       
  34 H34            2.1348     5.5543    -1.3009 H       
  35 H35            2.8950     4.9273    -2.7833 H       
  36 H36            2.2325     3.7985    -1.5769 H       
  37 H37            5.7616     6.0405    -0.6701 H       
  38 H38            4.9989     6.2112    -2.2693 H       
  39 H39            4.1887     6.8595    -0.8231 H       
  40 H40            4.4403     2.6354    -1.4529 H       
  41 H41            5.1027     3.7642    -2.6593 H       
  42 H42            5.9154     3.5625    -1.0886 H       
  43 H43            5.5888     6.3804     1.0726 H       
  44 H44            7.9177     4.8083     1.3581 H       
  45 H45            7.7068     6.4474     2.0193 H       
  46 H46            7.1912     5.0321     2.9676 H       
  47 H47            2.8637    -1.7112     0.4826 H       
  48 H48           -0.9542    -1.9020     2.4245 H       
  49 H49           -0.6039    -4.2985     2.8543 H       
  50 H50            1.4639    -5.3984     2.1017 H       
  51 H51            3.1933    -4.1095     0.9188 H       
  52 H52           -1.7033    -1.2956     1.0501 H       
  53 H53           -2.2916     0.0856     2.0084 H       
  54 H54           -2.0081     0.4165    -0.9738 H       
  55 H55           -3.3919    -0.5119    -0.3509 H       
  56 H56           -3.5742     2.1088    -0.6735 H       
  57 H57           -4.3097     1.3221     0.7389 H       
  58 H58           -0.9534     3.7295     0.8789 H       
  59 H59           -1.4412     2.8560    -0.5948 H       
  60 H60           -2.6241     4.2152     2.1497 H       
  61 H61           -4.3319     5.2317     0.7130 H       
  62 H62           -3.0297     4.5643    -0.3004 H       
  63 H63           -4.5706     3.6879    -0.1403 H       
  64 H64           -4.0517     2.5802     3.3487 H       
  65 H65           -4.9992     3.9938     2.8268 H       
  66 H66           -5.1137     2.4635     1.9250 H       
@<TRIPOS>BOND
   1    1    2 1
   2    1    3 2
   3    1   28 1
   4    2   24 1
   5    2    5 1
   6    3    4 1
   7    3    7 1
   8    4    5 2
   9    5    6 1
  10    6   19 ar
  11    6   20 ar
  12    7    8 2
  13    7   10 am
  14    9   10 1
  15    9   11 1
  16    9   15 1
  17    9   32 1
  18   10   33 1
  19   11   12 1
  20   11   13 1
  21   11   14 1
  22   12   34 1
  23   12   35 1
  24   12   36 1
  25   13   37 1
  26   13   38 1
  27   13   39 1
  28   14   40 1
  29   14   41 1
  30   14   42 1
  31   15   16 am
  32   15   17 2
  33   16   18 1
  34   16   43 1
  35   18   44 1
  36   18   45 1
  37   18   46 1
  38   19   23 ar
  39   19   47 1
  40   20   21 ar
  41   20   48 1
  42   21   22 ar
  43   21   49 1
  44   22   23 ar
  45   22   50 1
  46   23   51 1
  47   24   25 1
  48   24   52 1
  49   24   53 1
  50   25   26 1
  51   25   54 1
  52   25   55 1
  53   26   27 1
  54   26   56 1
  55   26   57 1
  56   27   28 1
  57   27   29 1
  58   28   58 1
  59   28   59 1
  60   29   30 1
  61   29   31 1
  62   29   60 1
  63   30   61 1
  64   30   62 1
  65   30   63 1
  66   31   64 1
  67   31   65 1
  68   31   66 1

#	End of record

