#	Name: ASD03570020
#	Creating user name:	WinNT
#	Creation time:	15. 06. 2019 20:43

#	Modifying user name:	WinNT
#	Modification time:	15. 06. 2019 20:43

#	Program:	/corina/corina34_cracker 3.40 0067  02.08.2006

@<TRIPOS>MOLECULE
ASD03570020
  30   31    0    0    0
SMALL
NO_CHARGES


@<TRIPOS>ATOM
   1 C1            -0.0168     1.3889     0.0097 C.ar    
   2 C2             0.0021    -0.0041     0.0020 C.ar    
   3 C3             1.2019    -0.6917    -0.0131 C.ar    
   4 C4             2.4044     0.0066    -0.0208 C.ar    
   5 C5             2.3918     1.4154    -0.0131 C.ar    
   6 C6             1.1633     2.1018     0.0022 C.ar    
   7 N7             3.7205    -0.3931    -0.0355 N.pl3   
   8 C8             4.5264     0.7332    -0.0371 C.2     
   9 C9             3.7383     1.8428    -0.0237 C.2     
  10 C10            4.2166     3.2718    -0.0210 C.3     
  11 C11            4.3649     3.7627    -1.4625 C.3     
  12 O12           -1.1684    -0.6930     0.0099 O.3     
  13 O13            1.1403     3.4591     0.0093 O.3     
  14 C14            4.8432     5.1918    -1.4598 C.2     
  15 O15            5.0448     5.7594    -0.4124 O.2     
  16 O16            5.0453     5.8341    -2.6210 O.3     
  17 C17            5.9923     0.7308    -0.0511 C.2     
  18 O18            6.6021     1.7829    -0.0509 O.2     
  19 O19            6.6646    -0.4385    -0.0643 O.3     
  20 H20           -0.9610     1.9132     0.0170 H       
  21 H21            1.2050    -1.7717    -0.0186 H       
  22 H22            4.0325    -1.3115    -0.0431 H       
  23 H23            3.4929     3.8962     0.5028 H       
  24 H24            5.1807     3.3314     0.4841 H       
  25 H25            5.0887     3.1383    -1.9863 H       
  26 H26            3.4008     3.7032    -1.9676 H       
  27 H27           -1.5161    -0.8878    -0.8711 H       
  28 H28            1.1250     3.8568    -0.8720 H       
  29 H29            5.3522     6.7496    -2.5687 H       
  30 H30            7.6304    -0.3896    -0.0733 H       
@<TRIPOS>BOND
   1    1    2 ar
   2    1    6 ar
   3    1   20 1
   4    2    3 ar
   5    2   12 1
   6    3    4 ar
   7    3   21 1
   8    4    5 ar
   9    4    7 1
  10    5    6 ar
  11    5    9 1
  12    6   13 1
  13    7    8 1
  14    7   22 1
  15    8    9 2
  16    8   17 1
  17    9   10 1
  18   10   11 1
  19   10   23 1
  20   10   24 1
  21   11   14 1
  22   11   25 1
  23   11   26 1
  24   12   27 1
  25   13   28 1
  26   14   15 2
  27   14   16 1
  28   16   29 1
  29   17   18 2
  30   17   19 1
  31   19   30 1

#	End of record

