#	Name: ASD01881948
#	Creating user name:	WinNT
#	Creation time:	15. 06. 2019 19:43

#	Modifying user name:	WinNT
#	Modification time:	15. 06. 2019 19:43

#	Program:	/corina/corina34_cracker 3.40 0067  02.08.2006

@<TRIPOS>MOLECULE
ASD01881948
  40   43    0    0    0
SMALL
NO_CHARGES


@<TRIPOS>ATOM
   1 N1            -0.0154     1.2839     0.0091 N.pl3   
   2 N2             0.0021    -0.0041     0.0020 N.2     
   3 N3             1.2033    -0.4649    -0.0119 N.2     
   4 C4             2.0741     0.5645    -0.0147 C.ar    
   5 C5             1.2843     1.7298    -0.0009 C.ar    
   6 C6             3.4670     0.6759    -0.0271 C.ar    
   7 C7             4.0484     1.9285    -0.0255 C.ar    
   8 C8             3.2560     3.0739    -0.0118 C.ar    
   9 C9             1.8924     2.9784    -0.0004 C.ar    
  10 O10            5.4033     2.0444    -0.0370 O.3     
  11 C11            5.9411     3.3683    -0.0346 C.3     
  12 C12            7.4465     3.2990    -0.0485 C.ar    
  13 C13            8.0735     2.0672    -0.0607 C.ar    
  14 C14            9.4587     2.0145    -0.0739 C.ar    
  15 C15           10.1647     3.2081    -0.0742 C.ar    
  16 C16            9.4689     4.4019    -0.0615 C.ar    
  17 N17            8.1501     4.4141    -0.0542 N.ar    
  18 C18           11.6716     3.2033    -0.0877 C.3     
  19 F19           12.1261     3.2084    -1.4108 F       
  20 F20           12.1475     4.3407     0.5733 F       
  21 F21           12.1401     2.0562     0.5618 F       
  22 C22           -1.2133     2.1272     0.0196 C.3     
  23 C23           -1.6228     2.4135     1.4657 C.3     
  24 C24           -2.7884     3.3784     1.6921 C.3     
  25 C25           -2.9777     1.8797     1.9352 C.3     
  26 Br26           4.5472    -0.8761    -0.0451 Br      
  27 H27            3.7236     4.0474    -0.0103 H       
  28 H28            1.2882     3.8735     0.0099 H       
  29 H29            5.5939     3.9031    -0.9187 H       
  30 H30            5.6098     3.8935     0.8612 H       
  31 H31            7.4916     1.1574    -0.0597 H       
  32 H32            9.9758     1.0663    -0.0833 H       
  33 H33           10.0113     5.3358    -0.0617 H       
  34 H34           -1.0007     3.0667    -0.4906 H       
  35 H35           -2.0254     1.6113    -0.4926 H       
  36 H36           -0.8089     2.4286     2.1906 H       
  37 H37           -2.7415     4.0280     2.5661 H       
  38 H38           -3.2635     3.8093     0.8108 H       
  39 H39           -3.5773     1.3246     1.2137 H       
  40 H40           -3.0553     1.5434     2.9691 H       
@<TRIPOS>BOND
   1    1    2 1
   2    1    5 1
   3    1   22 1
   4    2    3 2
   5    3    4 1
   6    4    5 ar
   7    4    6 ar
   8    5    9 ar
   9    6    7 ar
  10    6   26 1
  11    7    8 ar
  12    7   10 1
  13    8    9 ar
  14    8   27 1
  15    9   28 1
  16   10   11 1
  17   11   12 1
  18   11   29 1
  19   11   30 1
  20   12   13 ar
  21   12   17 ar
  22   13   14 ar
  23   13   31 1
  24   14   15 ar
  25   14   32 1
  26   15   16 ar
  27   15   18 1
  28   16   17 ar
  29   16   33 1
  30   18   19 1
  31   18   20 1
  32   18   21 1
  33   22   23 1
  34   22   34 1
  35   22   35 1
  36   23   24 1
  37   23   25 1
  38   23   36 1
  39   24   25 1
  40   24   37 1
  41   24   38 1
  42   25   39 1
  43   25   40 1

#	End of record

