#	Name: ASD01811452
#	Creating user name:	WinNT
#	Creation time:	15. 06. 2019 19:26

#	Modifying user name:	WinNT
#	Modification time:	15. 06. 2019 19:26

#	Program:	/corina/corina34_cracker 3.40 0067  02.08.2006

@<TRIPOS>MOLECULE
ASD01811452
  64   68    0    0    0
SMALL
NO_CHARGES


@<TRIPOS>ATOM
   1 C1            -8.0469     2.1791     2.3595 C.1     
   2 C2            -6.8782     2.9773     2.1409 C.ar    
   3 C3            -5.6291     2.5241     2.5699 C.ar    
   4 C4            -4.5074     3.2982     2.3561 C.ar    
   5 C5            -4.6182     4.5212     1.7187 C.ar    
   6 C6            -5.8529     4.9765     1.2914 C.ar    
   7 C7            -6.9818     4.2097     1.4927 C.ar    
   8 N8            -8.9739     1.5458     2.5329 N.1     
   9 N9            -1.9367     7.7889     1.4912 N.am    
  10 C10           -2.4396     7.2835     0.2065 C.3     
  11 C11           -3.7011     6.4531     0.4631 C.3     
  12 C12           -3.3885     5.3614     1.4891 C.3     
  13 C13           -2.9585     6.0070     2.8084 C.3     
  14 C14           -1.6885     6.8323     2.5784 C.3     
  15 F15           -2.3540     4.5519     1.0078 F       
  16 C16           -1.7022     9.1044     1.6672 C.2     
  17 C17           -1.2855     9.6103     2.9926 C.ar    
  18 C18           -2.0168    10.6236     3.6167 C.ar    
  19 C19           -1.6290    11.0969     4.8541 C.ar    
  20 C20           -0.5165    10.5731     5.4830 C.ar    
  21 C21            0.2233     9.5600     4.8704 C.ar    
  22 C22           -0.1660     9.0734     3.6245 C.ar    
  23 O23           -1.8332     9.8750     0.7363 O.2     
  24 C24            1.4149     9.0006     5.5453 C.2     
  25 N25            2.2210     8.0108     5.0547 N.pl3   
  26 C26            3.1917     7.7994     5.9812 C.2     
  27 C27            2.9607     8.6533     7.0086 C.2     
  28 N28            1.8829     9.3754     6.7188 N.2     
  29 C29            4.3424     6.8269     5.9548 C.3     
  30 C30            3.8385     8.7069     8.2361 C.3     
  31 C31            4.6892     7.4287     8.2589 C.3     
  32 O32            5.2755     7.2174     6.9719 O.3     
  33 C33           -3.2315    11.2018     2.9375 C.3     
  34 C34           -0.1000    11.0967     6.8334 C.3     
  35 C35            0.9636    12.1818     6.6538 C.3     
  36 H36           -5.5413     1.5700     3.0682 H       
  37 H37           -3.5407     2.9489     2.6874 H       
  38 H38           -5.9324     5.9323     0.7948 H       
  39 H39           -7.9443     4.5640     1.1544 H       
  40 H40           -2.6806     8.1219    -0.4469 H       
  41 H41           -1.6799     6.6584    -0.2628 H       
  42 H42           -4.4898     7.0993     0.8483 H       
  43 H43           -4.0297     5.9931    -0.4688 H       
  44 H44           -3.7542     6.6574     3.1715 H       
  45 H45           -2.7585     5.2295     3.5457 H       
  46 H46           -0.8676     6.1705     2.3025 H       
  47 H47           -1.4341     7.3731     3.4900 H       
  48 H48           -2.1978    11.8806     5.3324 H       
  49 H49            0.4001     8.2864     3.1485 H       
  50 H50            2.1190     7.5483     4.2081 H       
  51 H51            3.9782     5.8194     6.1559 H       
  52 H52            4.8273     6.8561     4.9790 H       
  53 H53            4.4872     9.5816     8.1883 H       
  54 H54            3.2188     8.7542     9.1315 H       
  55 H55            5.4778     7.5312     9.0044 H       
  56 H56            4.0581     6.5775     8.5142 H       
  57 H57           -4.1001    10.5806     3.1558 H       
  58 H58           -3.4064    12.2130     3.3049 H       
  59 H59           -3.0665    11.2301     1.8604 H       
  60 H60           -0.9666    11.5181     7.3427 H       
  61 H61            0.3101    10.2809     7.4287 H       
  62 H62            0.5534    12.9976     6.0585 H       
  63 H63            1.2648    12.5605     7.6305 H       
  64 H64            1.8302    11.7603     6.1444 H       
@<TRIPOS>BOND
   1    1    2 1
   2    1    8 3
   3    2    3 ar
   4    2    7 ar
   5    3    4 ar
   6    3   36 1
   7    4    5 ar
   8    4   37 1
   9    5    6 ar
  10    5   12 1
  11    6    7 ar
  12    6   38 1
  13    7   39 1
  14    9   10 1
  15    9   14 1
  16    9   16 am
  17   10   11 1
  18   10   40 1
  19   10   41 1
  20   11   12 1
  21   11   42 1
  22   11   43 1
  23   12   13 1
  24   12   15 1
  25   13   14 1
  26   13   44 1
  27   13   45 1
  28   14   46 1
  29   14   47 1
  30   16   17 1
  31   16   23 2
  32   17   18 ar
  33   17   22 ar
  34   18   19 ar
  35   18   33 1
  36   19   20 ar
  37   19   48 1
  38   20   21 ar
  39   20   34 1
  40   21   22 ar
  41   21   24 1
  42   22   49 1
  43   24   25 1
  44   24   28 2
  45   25   26 1
  46   25   50 1
  47   26   27 2
  48   26   29 1
  49   27   28 1
  50   27   30 1
  51   29   32 1
  52   29   51 1
  53   29   52 1
  54   30   31 1
  55   30   53 1
  56   30   54 1
  57   31   32 1
  58   31   55 1
  59   31   56 1
  60   33   57 1
  61   33   58 1
  62   33   59 1
  63   34   35 1
  64   34   60 1
  65   34   61 1
  66   35   62 1
  67   35   63 1
  68   35   64 1

#	End of record

