#	Name: ASD00310315
#	Creating user name:	WinNT
#	Creation time:	15. 06. 2019 18:34

#	Modifying user name:	WinNT
#	Modification time:	15. 06. 2019 18:34

#	Program:	/corina/corina34_cracker 3.40 0067  02.08.2006

@<TRIPOS>MOLECULE
ASD00310315
  55   58    0    0    0
SMALL
NO_CHARGES


@<TRIPOS>ATOM
   1 N1            -0.0179     1.4660     0.0101 N.am    
   2 C2             0.0021    -0.0041     0.0020 C.3     
   3 C3             1.4812    -0.4420    -0.0417 C.3     
   4 C4             2.1956     0.8049    -0.6268 C.3     
   5 C5             1.3719     1.9577    -0.0005 C.3     
   6 C6            -1.1236     2.2365     0.0197 C.2     
   7 O7            -2.2237     1.7205     0.0223 O.2     
   8 O8            -1.0093     3.5780     0.0264 O.3     
   9 C9            -0.6521    -0.5324     1.2526 C.ar    
  10 C10           -1.4514    -1.6595     1.1886 C.ar    
  11 C11           -2.0526    -2.1480     2.3309 C.ar    
  12 C12           -1.8532    -1.5035     3.5502 C.ar    
  13 C13           -1.0469    -0.3684     3.6088 C.ar    
  14 C14           -0.4464     0.1082     2.4612 C.ar    
  15 N15           -4.0553    -3.4608     8.3395 N.pl3   
  16 C16           -2.9695    -3.4867     9.1358 C.2     
  17 C17           -1.8699    -3.0405     8.4345 C.2     
  18 C18           -2.3525    -2.7144     7.0773 C.ar    
  19 C19           -1.7402    -2.2277     5.9284 C.ar    
  20 C20           -2.4972    -2.0236     4.7814 C.ar    
  21 C21           -3.8669    -2.3082     4.7877 C.ar    
  22 C22           -4.4747    -2.7902     5.9245 C.ar    
  23 C23           -3.7276    -2.9989     7.0811 C.ar    
  24 C24           -0.5437    -2.9183     8.9186 C.2     
  25 O25           -0.2852    -3.2240    10.0647 O.2     
  26 Cl26          -4.8069    -2.0509     3.3511 Cl      
  27 C27           -2.2424     4.3446     0.0367 C.3     
  28 C28           -3.0502     3.9946     1.2880 C.3     
  29 C29           -1.9138     5.8389     0.0432 C.3     
  30 C30           -3.0624     4.0082    -1.2104 C.3     
  31 H31           -0.5211    -0.3771    -0.8784 H       
  32 H32            1.8482    -0.6617     0.9609 H       
  33 H33            1.6093    -1.3030    -0.6977 H       
  34 H34            3.2356     0.8471    -0.3030 H       
  35 H35            2.1257     0.8207    -1.7144 H       
  36 H36            1.4517     2.8565    -0.6119 H       
  37 H37            1.7113     2.1579     1.0158 H       
  38 H38           -1.6056    -2.1580     0.2431 H       
  39 H39           -2.6768    -3.0278     2.2798 H       
  40 H40           -0.8889     0.1349     4.5512 H       
  41 H41            0.1820     0.9855     2.5061 H       
  42 H42           -4.9454    -3.7335     8.6121 H       
  43 H43           -2.9615    -3.8079    10.1669 H       
  44 H44           -0.6827    -2.0083     5.9276 H       
  45 H45           -5.5328    -3.0067     5.9198 H       
  46 H46            0.2372    -2.5531     8.2679 H       
  47 H47           -2.4659     4.2343     2.1764 H       
  48 H48           -3.9758     4.5701     1.2957 H       
  49 H49           -3.2842     2.9300     1.2834 H       
  50 H50           -1.3383     6.0883    -0.8483 H       
  51 H51           -2.8395     6.4144     0.0508 H       
  52 H52           -1.3296     6.0786     0.9316 H       
  53 H53           -3.2965     2.9436    -1.2151 H       
  54 H54           -3.9881     4.5837    -1.2027 H       
  55 H55           -2.4869     4.2575    -2.1019 H       
@<TRIPOS>BOND
   1    1    2 1
   2    1    5 1
   3    1    6 am
   4    2    3 1
   5    2    9 1
   6    2   31 1
   7    3    4 1
   8    3   32 1
   9    3   33 1
  10    4    5 1
  11    4   34 1
  12    4   35 1
  13    5   36 1
  14    5   37 1
  15    6    7 2
  16    6    8 1
  17    8   27 1
  18    9   10 ar
  19    9   14 ar
  20   10   11 ar
  21   10   38 1
  22   11   12 ar
  23   11   39 1
  24   12   13 ar
  25   12   20 1
  26   13   14 ar
  27   13   40 1
  28   14   41 1
  29   15   16 1
  30   15   23 1
  31   15   42 1
  32   16   17 2
  33   16   43 1
  34   17   18 1
  35   17   24 1
  36   18   19 ar
  37   18   23 ar
  38   19   20 ar
  39   19   44 1
  40   20   21 ar
  41   21   22 ar
  42   21   26 1
  43   22   23 ar
  44   22   45 1
  45   24   25 2
  46   24   46 1
  47   27   28 1
  48   27   30 1
  49   27   29 1
  50   28   47 1
  51   28   48 1
  52   28   49 1
  53   29   50 1
  54   29   51 1
  55   29   52 1
  56   30   53 1
  57   30   54 1
  58   30   55 1

#	End of record

