#	Name: ASD03930162
#	Creating user name:	WinNT
#	Creation time:	15. 06. 2019 20:47

#	Modifying user name:	WinNT
#	Modification time:	15. 06. 2019 20:47

#	Program:	/corina/corina34_cracker 3.40 0067  02.08.2006

@<TRIPOS>MOLECULE
ASD03930162
  49   51    0    0    0
SMALL
NO_CHARGES


@<TRIPOS>ATOM
   1 C1            -0.0184     1.5028     0.0103 C.2     
   2 C2             0.0021    -0.0041     0.0020 C.3     
   3 C3             1.4513    -0.4944    -0.0145 C.3     
   4 C4            -0.7002    -0.5305     1.2552 C.3     
   5 O5             1.0236     2.1234     0.0037 O.2     
   6 N6            -1.1946     2.1607     0.0195 N.am    
   7 C7            -1.2145     3.6256     0.0275 C.3     
   8 C8            -2.5364     4.1466    -0.5752 C.3     
   9 C9            -3.4295     4.3061     0.6735 C.3     
  10 C10           -2.4691     4.5343     1.8210 C.ar    
  11 C11           -2.6912     5.0438     3.0895 C.ar    
  12 C12           -1.6455     5.1621     3.9839 C.ar    
  13 C13           -0.3725     4.7710     3.6126 C.ar    
  14 C14           -0.1490     4.2627     2.3481 C.ar    
  15 C15           -1.1963     4.1433     1.4498 C.ar    
  16 C16           -1.8918     5.7175     5.3630 C.3     
  17 N17           -2.2273     4.6232     6.2774 N.pl3   
  18 N18           -3.2548     3.6875     6.1011 N.2     
  19 C19           -3.2433     2.8704     7.1228 C.2     
  20 C20           -2.2096     3.2587     7.9813 C.2     
  21 C21           -1.5972     4.3349     7.4354 C.2     
  22 C22           -4.1820     1.7112     7.3378 C.3     
  23 F23           -5.0062     1.5644     6.2169 F       
  24 F24           -3.4408     0.5400     7.5282 F       
  25 F25           -4.9704     1.9530     8.4679 F       
  26 C26           -1.8392     2.5925     9.2813 C.3     
  27 O27           -0.7318     3.2779     9.8692 O.3     
  28 H28           -0.5153    -0.3696    -0.8850 H       
  29 H29            1.9686    -0.1289     0.8726 H       
  30 H30            1.4661    -1.5843    -0.0204 H       
  31 H31            1.9516    -0.1193    -0.9073 H       
  32 H32           -0.1829    -0.1650     2.1423 H       
  33 H33           -1.7327    -0.1812     1.2669 H       
  34 H34           -0.6854    -1.6204     1.2492 H       
  35 H35           -2.0280     1.6644     0.0207 H       
  36 H36           -0.3640     4.0178    -0.5302 H       
  37 H37           -2.3854     5.1066    -1.0687 H       
  38 H38           -2.9616     3.4176    -1.2651 H       
  39 H39           -4.0914     5.1643     0.5580 H       
  40 H40           -4.0106     3.3992     0.8413 H       
  41 H41           -3.6853     5.3498     3.3802 H       
  42 H42            0.4465     4.8632     4.3106 H       
  43 H43            0.8457     3.9574     2.0588 H       
  44 H44           -0.9936     6.2239     5.7164 H       
  45 H45           -2.7185     6.4270     5.3267 H       
  46 H46           -0.7567     4.8691     7.8531 H       
  47 H47           -2.6900     2.6258     9.9619 H       
  48 H48           -1.5654     1.5545     9.0925 H       
  49 H49           -0.4387     2.9025    10.7108 H       
@<TRIPOS>BOND
   1    1    2 1
   2    1    5 2
   3    1    6 am
   4    2    3 1
   5    2    4 1
   6    2   28 1
   7    3   29 1
   8    3   30 1
   9    3   31 1
  10    4   32 1
  11    4   33 1
  12    4   34 1
  13    6    7 1
  14    6   35 1
  15    7    8 1
  16    7   15 1
  17    7   36 1
  18    8    9 1
  19    8   37 1
  20    8   38 1
  21    9   10 1
  22    9   39 1
  23    9   40 1
  24   10   11 ar
  25   10   15 ar
  26   11   12 ar
  27   11   41 1
  28   12   13 ar
  29   12   16 1
  30   13   14 ar
  31   13   42 1
  32   14   15 ar
  33   14   43 1
  34   16   17 1
  35   16   44 1
  36   16   45 1
  37   17   18 1
  38   17   21 1
  39   18   19 2
  40   19   20 1
  41   19   22 1
  42   20   21 2
  43   20   26 1
  44   21   46 1
  45   22   23 1
  46   22   24 1
  47   22   25 1
  48   26   27 1
  49   26   47 1
  50   26   48 1
  51   27   49 1

#	End of record

