#	Name: ASD01190050
#	Creating user name:	WinNT
#	Creation time:	15. 06. 2019 19:07

#	Modifying user name:	WinNT
#	Modification time:	15. 06. 2019 19:07

#	Program:	/corina/corina34_cracker 3.40 0067  02.08.2006

@<TRIPOS>MOLECULE
ASD01190050
  51   54    0    0    0
SMALL
NO_CHARGES


@<TRIPOS>ATOM
   1 C1            -0.0187     1.5258     0.0104 C.3     
   2 C2            -0.9596     2.6613     0.4180 C.3     
   3 N3             5.2647     3.4324     0.1973 N.am    
   4 N4             5.3901     3.5884     1.5816 N.2     
   5 C5             4.2834     3.2395     2.1731 C.2     
   6 C6             3.3403     2.8191     1.1419 C.ar    
   7 C7             2.0225     2.3483     1.1624 C.ar    
   8 C8             1.4005     2.0323    -0.0104 C.ar    
   9 C9             2.0633     2.1728    -1.2236 C.ar    
  10 C10            3.3499     2.6294    -1.2693 C.ar    
  11 C11            4.0104     2.9603    -0.0885 C.ar    
  12 S12            6.4411     3.7707    -0.9181 S.o2    
  13 O13            5.7220     4.0608    -2.1088 O.2     
  14 O14            7.2463     4.7585    -0.2895 O.2     
  15 C15            6.4140     1.1159    -1.5759 C.3     
  16 C16            7.3603     2.2165    -1.0921 C.3     
  17 C17            8.4885     2.4024    -2.1087 C.3     
  18 N18           -0.7716    -0.8275     2.7403 N.pl3   
  19 C19           -0.9396     0.3566     2.0756 C.2     
  20 C20           -0.1346     0.3969     1.0020 C.2     
  21 C21            0.6097    -0.8645     0.9773 C.ar    
  22 C22            1.5764    -1.4045     0.1267 C.ar    
  23 C23            2.0903    -2.6440     0.3842 C.ar    
  24 C24            1.6591    -3.3714     1.4853 C.ar    
  25 C25            0.7062    -2.8579     2.3371 C.ar    
  26 C26            0.1695    -1.5975     2.0943 C.ar    
  27 C27           -1.4825    -1.2156     3.9610 C.3     
  28 F28           -0.8520     3.7092    -0.5025 F       
  29 F29           -2.2770     2.1910     0.4373 F       
  30 F30           -0.6101     3.1219     1.6920 F       
  31 O31           -0.3756     1.0553    -1.2908 O.3     
  32 H32            4.0971     3.2576     3.2367 H       
  33 H33            1.5009     2.2352     2.1013 H       
  34 H34            1.5551     1.9175    -2.1418 H       
  35 H35            3.8539     2.7334    -2.2188 H       
  36 H36            6.9663     0.1820    -1.6805 H       
  37 H37            5.6103     0.9835    -0.8517 H       
  38 H38            5.9914     1.3980    -2.5402 H       
  39 H39            7.7829     1.9344    -0.1278 H       
  40 H40            9.1626     3.1865    -1.7640 H       
  41 H41            9.0408     1.4685    -2.2132 H       
  42 H42            8.0659     2.6845    -3.0730 H       
  43 H43           -1.6193     1.1422     2.3706 H       
  44 H44            1.9163    -0.8446    -0.7320 H       
  45 H45            2.8377    -3.0614    -0.2743 H       
  46 H46            2.0748    -4.3498     1.6757 H       
  47 H47            0.3770    -3.4317     3.1908 H       
  48 H48           -2.4024    -1.7367     3.6957 H       
  49 H49           -0.8501    -1.8748     4.5558 H       
  50 H50           -1.7239    -0.3241     4.5399 H       
  51 H51            0.1804     0.3332    -1.6142 H       
@<TRIPOS>BOND
   1    1    2 1
   2    1    8 1
   3    1   20 1
   4    1   31 1
   5    2   28 1
   6    2   29 1
   7    2   30 1
   8    3    4 1
   9    3   11 1
  10    3   12 am
  11    4    5 2
  12    5    6 1
  13    5   32 1
  14    6    7 ar
  15    6   11 ar
  16    7    8 ar
  17    7   33 1
  18    8    9 ar
  19    9   10 ar
  20    9   34 1
  21   10   11 ar
  22   10   35 1
  23   12   13 2
  24   12   14 2
  25   12   16 1
  26   15   16 1
  27   15   36 1
  28   15   37 1
  29   15   38 1
  30   16   17 1
  31   16   39 1
  32   17   40 1
  33   17   41 1
  34   17   42 1
  35   18   19 1
  36   18   26 1
  37   18   27 1
  38   19   20 2
  39   19   43 1
  40   20   21 1
  41   21   22 ar
  42   21   26 ar
  43   22   23 ar
  44   22   44 1
  45   23   24 ar
  46   23   45 1
  47   24   25 ar
  48   24   46 1
  49   25   26 ar
  50   25   47 1
  51   27   48 1
  52   27   49 1
  53   27   50 1
  54   31   51 1

#	End of record

