#	Name: ASD01882702
#	Creating user name:	WinNT
#	Creation time:	15. 06. 2019 19:45

#	Modifying user name:	WinNT
#	Modification time:	15. 06. 2019 19:45

#	Program:	/corina/corina34_cracker 3.40 0067  02.08.2006

@<TRIPOS>MOLECULE
ASD01882702
  43   45    0    0    0
SMALL
NO_CHARGES


@<TRIPOS>ATOM
   1 C1             4.2580     5.3973    -2.0165 C.2     
   2 N2             4.8908     4.2349    -1.9318 N.2     
   3 C3             6.1384     4.0853    -2.3889 C.2     
   4 C4             6.8059     5.1887    -2.9782 C.2     
   5 C5             6.1517     6.3662    -3.0587 C.2     
   6 N6             4.8769     6.4640    -2.5756 N.pl3   
   7 O7             3.0040     5.6823    -1.6025 O.3     
   8 C8             3.9661     7.6211    -2.5472 C.3     
   9 C9             2.6922     7.0740    -1.8803 C.3     
  10 O10            6.7000     3.0043    -2.2989 O.2     
  11 C11            1.5046     7.1753    -2.8396 C.3     
  12 O12            0.3270     6.6881    -2.1930 O.3     
  13 C13           -0.8262     6.7088    -2.9132 C.ar    
  14 C14           -2.0062     6.2505    -2.3463 C.ar    
  15 C15           -3.1776     6.2715    -3.0780 C.ar    
  16 C16           -3.1740     6.7513    -4.3793 C.ar    
  17 C17           -1.9943     7.2106    -4.9458 C.ar    
  18 C18           -0.8237     7.1936    -4.2127 C.ar    
  19 O19           -4.3271     6.7712    -5.0998 O.3     
  20 C20           -4.2765     7.3875    -6.3881 C.3     
  21 C21           -3.3205     6.6049    -7.2906 C.3     
  22 C22           -5.6755     7.3899    -7.0076 C.3     
  23 C23           -3.7794     8.8274    -6.2455 C.3     
  24 H24            7.8138     5.0892    -3.3533 H       
  25 H25            6.6324     7.2259    -3.5017 H       
  26 H26            4.3935     8.4295    -1.9540 H       
  27 H27            3.7492     7.9618    -3.5596 H       
  28 H28            2.4827     7.6100    -0.9546 H       
  29 H29            1.3571     8.2165    -3.1265 H       
  30 H30            1.7041     6.5780    -3.7292 H       
  31 H31           -2.0090     5.8768    -1.3330 H       
  32 H32           -4.0963     5.9139    -2.6368 H       
  33 H33           -1.9914     7.5839    -5.9592 H       
  34 H34            0.0943     7.5546    -4.6525 H       
  35 H35           -3.8349     5.7337    -7.6960 H       
  36 H36           -2.9883     7.2440    -8.1088 H       
  37 H37           -2.4572     6.2797    -6.7101 H       
  38 H38           -6.3566     7.9474    -6.3646 H       
  39 H39           -5.6369     7.8600    -7.9902 H       
  40 H40           -6.0296     6.3640    -7.1092 H       
  41 H41           -2.8855     8.8431    -5.6220 H       
  42 H42           -3.5424     9.2292    -7.2306 H       
  43 H43           -4.5562     9.4357    -5.7822 H       
@<TRIPOS>BOND
   1    1    2 2
   2    1    6 1
   3    1    7 1
   4    2    3 1
   5    3    4 1
   6    3   10 2
   7    4    5 2
   8    4   24 1
   9    5    6 1
  10    5   25 1
  11    6    8 1
  12    7    9 1
  13    8    9 1
  14    8   26 1
  15    8   27 1
  16    9   11 1
  17    9   28 1
  18   11   12 1
  19   11   29 1
  20   11   30 1
  21   12   13 1
  22   13   14 ar
  23   13   18 ar
  24   14   15 ar
  25   14   31 1
  26   15   16 ar
  27   15   32 1
  28   16   17 ar
  29   16   19 1
  30   17   18 ar
  31   17   33 1
  32   18   34 1
  33   19   20 1
  34   20   21 1
  35   20   23 1
  36   20   22 1
  37   21   35 1
  38   21   36 1
  39   21   37 1
  40   22   38 1
  41   22   39 1
  42   22   40 1
  43   23   41 1
  44   23   42 1
  45   23   43 1

#	End of record

