#	Name: ASD01200308
#	Creating user name:	WinNT
#	Creation time:	15. 06. 2019 19:08

#	Modifying user name:	WinNT
#	Modification time:	15. 06. 2019 19:08

#	Program:	/corina/corina34_cracker 3.40 0067  02.08.2006

@<TRIPOS>MOLECULE
ASD01200308
  54   56    0    0    0
SMALL
NO_CHARGES


@<TRIPOS>ATOM
   1 C1            -0.0169     1.3923     0.0107 C.ar    
   2 C2             0.0018    -0.0039    -0.0058 C.ar    
   3 C3            -1.1566    -0.7209     0.0022 C.ar    
   4 C4            -2.3885    -0.0536     0.0273 C.ar    
   5 C5            -2.4138     1.3625     0.0443 C.ar    
   6 C6            -1.2122     2.0784     0.0414 C.ar    
   7 N7            -3.5543    -0.7184     0.0355 N.ar    
   8 C8            -4.6919    -0.0663     0.0588 C.ar    
   9 N9            -4.7647     1.2554     0.0749 N.ar    
  10 C10           -3.6739     2.0092     0.0692 C.ar    
  11 O11            1.1547     2.0814     0.0022 O.3     
  12 N12           -3.7637     3.3870     0.0857 N.pl3   
  13 C13           -5.0082     4.0010     0.1086 C.2     
  14 N14           -5.2039     5.2828     0.1254 N.2     
  15 C15           -6.4579     5.6953     0.1463 C.2     
  16 C16           -7.3640     4.7162     0.1471 C.2     
  17 S17           -6.5066     3.1777     0.1115 S.3     
  18 C18           -6.8350     7.1542     0.1682 C.3     
  19 P19           -7.0098     7.7624    -1.5414 P.3     
  20 O20           -7.9782     6.9134    -2.2706 O.2     
  21 C21            1.0698     3.5041    -0.1003 C.3     
  22 C22            0.8643     4.1044     1.2919 C.3     
  23 C23            2.3649     4.0501    -0.7050 C.3     
  24 O24           -7.5395     9.2826    -1.5187 O.3     
  25 C25           -8.3418    11.4148    -2.3253 C.3     
  26 C26           -7.8766    10.0071    -2.7034 C.3     
  27 O27           -5.5808     7.7030    -2.2809 O.3     
  28 C28           -3.9323     7.8585    -4.0412 C.3     
  29 C29           -5.4069     8.0153    -3.6644 C.3     
  30 H30            0.9487    -0.5231    -0.0256 H       
  31 H31           -1.1256    -1.8004    -0.0112 H       
  32 H32           -1.2209     3.1582     0.0545 H       
  33 H33           -5.6110    -0.6333     0.0648 H       
  34 H34           -2.9571     3.9257     0.0813 H       
  35 H35           -8.4363     4.8445     0.1627 H       
  36 H36           -7.7808     7.2770     0.6960 H       
  37 H37           -6.0576     7.7228     0.6785 H       
  38 H38            0.2289     3.7728    -0.7396 H       
  39 H39            0.7995     5.1897     1.2137 H       
  40 H40           -0.0584     3.7155     1.7227 H       
  41 H41            1.7052     3.8358     1.9312 H       
  42 H42            2.5114     3.6224    -1.6968 H       
  43 H43            2.3002     5.1353    -0.7832 H       
  44 H44            3.2059     3.7814    -0.0657 H       
  45 H45           -8.5990    11.9674    -3.2289 H       
  46 H46           -9.2172    11.3469    -1.6794 H       
  47 H47           -7.5406    11.9329    -1.7982 H       
  48 H48           -7.0012    10.0750    -3.3493 H       
  49 H49           -8.6778     9.4890    -3.2305 H       
  50 H50           -3.6178     6.8310    -3.8583 H       
  51 H51           -3.7996     8.0967    -5.0965 H       
  52 H52           -3.3290     8.5361    -3.4371 H       
  53 H53           -6.0102     7.3376    -4.2685 H       
  54 H54           -5.7214     9.0427    -3.8473 H       
@<TRIPOS>BOND
   1    1    2 ar
   2    1   11 1
   3    1    6 ar
   4    2    3 ar
   5    2   30 1
   6    3    4 ar
   7    3   31 1
   8    4    5 ar
   9    4    7 ar
  10    5    6 ar
  11    5   10 ar
  12    6   32 1
  13    7    8 ar
  14    8    9 ar
  15    8   33 1
  16    9   10 ar
  17   10   12 1
  18   11   21 1
  19   12   13 1
  20   12   34 1
  21   13   14 2
  22   13   17 1
  23   14   15 1
  24   15   16 2
  25   15   18 1
  26   16   17 1
  27   16   35 1
  28   18   19 1
  29   18   36 1
  30   18   37 1
  31   19   20 2
  32   19   24 1
  33   19   27 1
  34   21   22 1
  35   21   23 1
  36   21   38 1
  37   22   39 1
  38   22   40 1
  39   22   41 1
  40   23   42 1
  41   23   43 1
  42   23   44 1
  43   24   26 1
  44   25   26 1
  45   25   45 1
  46   25   46 1
  47   25   47 1
  48   26   48 1
  49   26   49 1
  50   27   29 1
  51   28   29 1
  52   28   50 1
  53   28   51 1
  54   28   52 1
  55   29   53 1
  56   29   54 1

#	End of record

