#	Name: ASD01915273
#	Creating user name:	WinNT
#	Creation time:	15. 06. 2019 20:05

#	Modifying user name:	WinNT
#	Modification time:	15. 06. 2019 20:05

#	Program:	/corina/corina34_cracker 3.40 0067  02.08.2006

@<TRIPOS>MOLECULE
ASD01915273
  42   44    0    0    0
SMALL
NO_CHARGES


@<TRIPOS>ATOM
   1 C1            -0.1318     1.8557    -0.0554 C.ar    
   2 S2            -0.0683     0.0951    -0.0235 S.3     
   3 C3            -1.8199    -0.3764    -0.0174 C.3     
   4 C4            -1.9357    -1.8787     0.0096 C.2     
   5 N5            -3.1512    -2.4609     0.0185 N.am    
   6 C6            -3.2867    -3.9252     0.0448 C.3     
   7 C7            -4.2400    -4.3055     1.1827 C.3     
   8 N8            -5.5009    -3.5677     1.0281 N.3     
   9 C9            -5.2877    -2.1187     1.1417 C.3     
  10 C10           -4.3773    -1.6486     0.0083 C.3     
  11 C11           -6.4552    -4.0076     1.9504 C.ar    
  12 C12           -6.8858    -3.1610     2.9629 C.ar    
  13 C13           -7.8289    -3.5982     3.8731 C.ar    
  14 C14           -8.3441    -4.8785     3.7769 C.ar    
  15 C15           -7.9168    -5.7255     2.7690 C.ar    
  16 C16           -6.9788    -5.2916     1.8519 C.ar    
  17 Cl17          -9.5285    -5.4241     4.9229 Cl      
  18 Cl18          -6.4430    -6.3540     0.5879 Cl      
  19 O19           -0.9350    -2.5638     0.0234 O.2     
  20 C20            1.0448     2.5950    -0.0672 C.ar    
  21 C21            0.9912     3.9746    -0.0927 C.ar    
  22 C22           -0.2316     4.6206    -0.1065 C.ar    
  23 C23           -1.4047     3.8881    -0.0949 C.ar    
  24 C24           -1.3587     2.5082    -0.0747 C.ar    
  25 H25           -2.3056     0.0413     0.8645 H       
  26 H26           -2.3031     0.0092    -0.9151 H       
  27 H27           -3.6934    -4.2724    -0.9050 H       
  28 H28           -2.3113    -4.3801     0.2169 H       
  29 H29           -4.4388    -5.3766     1.1480 H       
  30 H30           -3.7844    -4.0505     2.1395 H       
  31 H31           -6.2463    -1.6039     1.0772 H       
  32 H32           -4.8175    -1.8941     2.0990 H       
  33 H33           -4.1240    -0.5985     0.1537 H       
  34 H34           -4.8862    -1.7766    -0.9471 H       
  35 H35           -6.4837    -2.1616     3.0393 H       
  36 H36           -8.1640    -2.9397     4.6608 H       
  37 H37           -8.3202    -6.7247     2.6967 H       
  38 H38            2.0001     2.0912    -0.0560 H       
  39 H39            1.9052     4.5498    -0.1015 H       
  40 H40           -0.2706     5.6997    -0.1261 H       
  41 H41           -2.3578     4.3959    -0.1054 H       
  42 H42           -2.2752     1.9368    -0.0659 H       
@<TRIPOS>BOND
   1    1    2 1
   2    1   20 ar
   3    1   24 ar
   4    2    3 1
   5    3    4 1
   6    3   25 1
   7    3   26 1
   8    4    5 am
   9    4   19 2
  10    5    6 1
  11    5   10 1
  12    6    7 1
  13    6   27 1
  14    6   28 1
  15    7    8 1
  16    7   29 1
  17    7   30 1
  18    8    9 1
  19    8   11 1
  20    9   10 1
  21    9   31 1
  22    9   32 1
  23   10   33 1
  24   10   34 1
  25   11   12 ar
  26   11   16 ar
  27   12   13 ar
  28   12   35 1
  29   13   14 ar
  30   13   36 1
  31   14   15 ar
  32   14   17 1
  33   15   16 ar
  34   15   37 1
  35   16   18 1
  36   20   21 ar
  37   20   38 1
  38   21   22 ar
  39   21   39 1
  40   22   23 ar
  41   22   40 1
  42   23   24 ar
  43   23   41 1
  44   24   42 1

#	End of record

