#	Name: ASD01001209
#	Creating user name:	WinNT
#	Creation time:	15. 06. 2019 18:55

#	Modifying user name:	WinNT
#	Modification time:	15. 06. 2019 18:55

#	Program:	/corina/corina34_cracker 3.40 0067  02.08.2006

@<TRIPOS>MOLECULE
ASD01001209
  73   76    0    0    0
SMALL
NO_CHARGES


@<TRIPOS>ATOM
   1 C1            -0.0187     1.5273     0.0104 C.3     
   2 C2             1.4127     2.0573    -0.0004 C.3     
   3 C3             0.0021    -0.0041     0.0020 C.3     
   4 C4             2.1255     1.6823     1.3022 C.3     
   5 C5             2.1893     1.4771    -1.1804 C.3     
   6 C6             0.7934    -0.4801    -1.2201 C.3     
   7 N7             3.4499     2.3200     1.2852 N.pl3   
   8 C8             1.3322     2.1834     2.4814 C.ar    
   9 C9             3.6378     1.8897    -1.0941 C.ar    
  10 C10            0.8535    -2.0090    -1.2267 C.3     
  11 C11            4.2052     2.2840     0.1077 C.ar    
  12 C12            4.4090     1.8705    -2.2430 C.ar    
  13 C13            5.5453     2.6532     0.1539 C.ar    
  14 C14            6.3085     2.6303    -0.9963 C.ar    
  15 C15            5.7401     2.2390    -2.1944 C.ar    
  16 H16            3.7950     2.7593     2.0781 H       
  17 O17            2.1178     0.0494    -1.1551 O.3     
  18 C18            0.5160     1.3167     3.1840 C.ar    
  19 C19           -0.2117     1.7764     4.2656 C.ar    
  20 C20           -0.1230     3.1027     4.6450 C.ar    
  21 C21            0.6939     3.9692     3.9430 C.ar    
  22 C22            1.4249     3.5085     2.8640 C.ar    
  23 N23            1.6105    -2.4629    -2.3959 N.am    
  24 S24            2.1565    -4.0243    -2.4737 S.o2    
  25 C25            0.6474    -5.0288    -2.5388 C.3     
  26 C26            1.0235    -6.5100    -2.6137 C.3     
  27 O27            2.8534    -4.0907    -3.7103 O.2     
  28 O28            2.8334    -4.2208    -1.2398 O.2     
  29 C29           -0.2494    -7.3572    -2.6687 C.3     
  30 N30            0.1117    -8.7793    -2.7406 N.3     
  31 C31           -1.0699    -9.6324    -2.5566 C.3     
  32 C32            0.7910    -9.0866    -4.0063 C.3     
  33 C33            6.5732     2.2157    -3.4499 C.3     
  34 C34            7.1063     3.6213    -3.7344 C.3     
  35 C35            7.7475     1.2526    -3.2650 C.3     
  36 H36           -0.5292     1.8786     0.9071 H       
  37 H37           -0.5462     1.8882    -0.8725 H       
  38 H38            1.3930     3.1427    -0.0992 H       
  39 H39            0.4803    -0.3680     0.9114 H       
  40 H40           -1.0184    -0.3830    -0.0532 H       
  41 H41            2.2372     0.5998     1.3640 H       
  42 H42            1.7617     1.8454    -2.1129 H       
  43 H43            0.3044    -0.1308    -2.1295 H       
  44 H44            1.3449    -2.3571    -0.3181 H       
  45 H45           -0.1582    -2.4122    -1.2699 H       
  46 H46            3.9691     1.5659    -3.1811 H       
  47 H47            5.9891     2.9582     1.0901 H       
  48 H48            7.3490     2.9176    -0.9602 H       
  49 H49            0.4467     0.2805     2.8876 H       
  50 H50           -0.8499     1.0994     4.8141 H       
  51 H51           -0.6921     3.4620     5.4896 H       
  52 H52            0.7629     5.0055     4.2392 H       
  53 H53            2.0631     4.1855     2.3155 H       
  54 H54            1.7919    -1.8488    -3.1245 H       
  55 H55            0.0528    -4.8498    -1.6430 H       
  56 H56            0.0672    -4.7562    -3.4204 H       
  57 H57            1.6180    -6.6890    -3.5096 H       
  58 H58            1.6036    -6.7826    -1.7321 H       
  59 H59           -0.8439    -7.1781    -1.7728 H       
  60 H60           -0.8295    -7.0846    -3.5502 H       
  61 H61           -1.7988    -9.4170    -3.3379 H       
  62 H62           -0.7743   -10.6800    -2.6144 H       
  63 H63           -1.5134    -9.4334    -1.5810 H       
  64 H64            1.7003    -8.4907    -4.0847 H       
  65 H65            1.0471   -10.1457    -4.0334 H       
  66 H66            0.1294    -8.8514    -4.8401 H       
  67 H67            5.9593     1.8836    -4.2872 H       
  68 H68            7.7202     3.9534    -2.8972 H       
  69 H69            7.7089     3.6044    -4.6426 H       
  70 H70            6.2697     4.3074    -3.8662 H       
  71 H71            7.3677     0.2512    -3.0623 H       
  72 H72            8.3501     1.2357    -4.1731 H       
  73 H73            8.3614     1.5847    -2.4277 H       
@<TRIPOS>BOND
   1    1    3 1
   2    1    2 1
   3    1   36 1
   4    1   37 1
   5    2    4 1
   6    2    5 1
   7    2   38 1
   8    3    6 1
   9    3   39 1
  10    3   40 1
  11    4    7 1
  12    4    8 1
  13    4   41 1
  14    5    9 1
  15    5   17 1
  16    5   42 1
  17    6   10 1
  18    6   17 1
  19    6   43 1
  20    7   11 1
  21    7   16 1
  22    8   18 ar
  23    8   22 ar
  24    9   11 ar
  25    9   12 ar
  26   10   23 1
  27   10   44 1
  28   10   45 1
  29   11   13 ar
  30   12   15 ar
  31   12   46 1
  32   13   14 ar
  33   13   47 1
  34   14   15 ar
  35   14   48 1
  36   15   33 1
  37   18   19 ar
  38   18   49 1
  39   19   20 ar
  40   19   50 1
  41   20   21 ar
  42   20   51 1
  43   21   22 ar
  44   21   52 1
  45   22   53 1
  46   23   24 am
  47   23   54 1
  48   24   25 1
  49   24   27 2
  50   24   28 2
  51   25   26 1
  52   25   55 1
  53   25   56 1
  54   26   29 1
  55   26   57 1
  56   26   58 1
  57   29   30 1
  58   29   59 1
  59   29   60 1
  60   30   31 1
  61   30   32 1
  62   31   61 1
  63   31   62 1
  64   31   63 1
  65   32   64 1
  66   32   65 1
  67   32   66 1
  68   33   34 1
  69   33   35 1
  70   33   67 1
  71   34   68 1
  72   34   69 1
  73   34   70 1
  74   35   71 1
  75   35   72 1
  76   35   73 1

#	End of record

