#	Name: ASD02038049
#	Creating user name:	WinNT
#	Creation time:	15. 06. 2019 20:16

#	Modifying user name:	WinNT
#	Modification time:	15. 06. 2019 20:16

#	Program:	/corina/corina34_cracker 3.40 0067  02.08.2006

@<TRIPOS>MOLECULE
ASD02038049
  36   38    0    0    0
SMALL
NO_CHARGES


@<TRIPOS>ATOM
   1 N1            -0.0164     1.3728     0.1111 N.am    
   2 N2             0.9157     3.5036    -0.0896 N.am    
   3 C3             1.0667     2.1676     0.0035 C.2     
   4 C4             0.5428     6.8742    -0.5243 C.3     
   5 O5            -0.3969     7.4920    -1.4058 O.3     
   6 C6            -0.6779     8.8044    -1.1872 C.ar    
   7 C7            -1.5813     9.4659    -2.0057 C.ar    
   8 C8            -0.0654     9.4800    -0.1422 C.ar    
   9 C9            -0.3508    10.8132     0.0799 C.ar    
  10 C10           -1.2496    11.4763    -0.7424 C.ar    
  11 C11           -1.8667    10.7991    -1.7837 C.ar    
  12 O12            2.1794     1.6797    -0.0096 O.2     
  13 O13           -1.5308    12.7886    -0.5235 O.3     
  14 C14           -0.0069     0.0029     0.1086 C.2     
  15 C15            1.8099     4.6708    -0.1211 C.3     
  16 C16            0.7294     5.4090    -0.9234 C.3     
  17 C17           -0.2156     4.4355    -0.2110 C.3     
  18 C18           -1.2767    -0.4258     0.2359 C.2     
  19 C19           -2.1048     0.7141     0.3204 C.2     
  20 C20           -1.3112     1.7991     0.2473 C.2     
  21 H21            1.4989     7.3934    -0.5907 H       
  22 H22            0.1706     6.9275     0.4988 H       
  23 H23           -2.0613     8.9388    -2.8170 H       
  24 H24            0.6344     8.9637     0.4981 H       
  25 H25            0.1256    11.3390     0.8941 H       
  26 H26           -2.5662    11.3155    -2.4242 H       
  27 H27           -0.9501    13.3996    -0.9972 H       
  28 H28            0.8677    -0.6244     0.0195 H       
  29 H29            1.9925     5.1043     0.8622 H       
  30 H30            2.7275     4.4996    -0.6839 H       
  31 H31            0.7917     5.2582    -2.0011 H       
  32 H32           -1.0188     4.0655    -0.8483 H       
  33 H33           -0.5750     4.8041     0.7497 H       
  34 H34           -1.6027    -1.4550     0.2672 H       
  35 H35           -3.1794     0.7156     0.4285 H       
  36 H36           -1.6391     2.8275     0.2835 H       
@<TRIPOS>BOND
   1    1   14 1
   2    1    3 am
   3    1   20 1
   4    2    3 am
   5    2   15 1
   6    2   17 1
   7    3   12 2
   8    4    5 1
   9    4   16 1
  10    4   21 1
  11    4   22 1
  12    5    6 1
  13    6    7 ar
  14    6    8 ar
  15    7   11 ar
  16    7   23 1
  17    8    9 ar
  18    8   24 1
  19    9   10 ar
  20    9   25 1
  21   10   11 ar
  22   10   13 1
  23   11   26 1
  24   13   27 1
  25   14   18 2
  26   14   28 1
  27   15   16 1
  28   15   29 1
  29   15   30 1
  30   16   17 1
  31   16   31 1
  32   17   32 1
  33   17   33 1
  34   18   19 1
  35   18   34 1
  36   19   20 2
  37   19   35 1
  38   20   36 1

#	End of record

