#	Name: ASD08178157
#	Creating user name:	WinNT
#	Creation time:	15. 06. 2019 21:18

#	Modifying user name:	WinNT
#	Modification time:	15. 06. 2019 21:18

#	Program:	/corina/corina34_cracker 3.40 0067  02.08.2006

@<TRIPOS>MOLECULE
ASD08178157
  47   48    0    0    0
SMALL
NO_CHARGES


@<TRIPOS>ATOM
   1 C1            -0.0155     1.2947     0.0092 C.2     
   2 N2             0.0021    -0.0041     0.0020 N.2     
   3 N3            -1.1080    -0.6053     0.0098 N.2     
   4 C4            -2.1691     0.1371     0.0243 C.2     
   5 S5            -1.6454     1.8215     0.0350 S.3     
   6 C6            -7.8934    -1.8628     4.9185 C.2     
   7 N7            -8.3877    -0.9330     5.6724 N.2     
   8 N8            -8.5782    -1.2303     6.8845 N.2     
   9 C9            -8.2650    -2.4314     7.2672 C.2     
  10 S10           -7.6511    -3.2941     5.9205 S.3     
  11 N11           -8.4044    -2.9336     8.5568 N.am    
  12 C12           -8.9028    -2.1512     9.5345 C.2     
  13 O13           -9.0378    -2.6375    10.7828 O.3     
  14 O14           -9.2302    -1.0071     9.2894 O.2     
  15 C15           -9.5813    -1.7385    11.7852 C.3     
  16 C16           -9.6594    -2.4624    13.1308 C.3     
  17 N17            1.1035     2.1207     0.0029 N.am    
  18 C18            2.3388     1.5819    -0.0123 C.2     
  19 O19            2.4749     0.3745    -0.0205 O.2     
  20 O20            3.4220     2.3815    -0.0183 O.3     
  21 C21            4.7206     1.7322    -0.0348 C.3     
  22 C22            5.8219     2.7943    -0.0395 C.3     
  23 C23           -3.5950    -0.3506     0.0351 C.3     
  24 C24           -4.0639    -0.5235     1.4812 C.3     
  25 S25           -5.7803    -1.1104     1.4941 S.3     
  26 C26           -6.1497    -1.2522     3.2645 C.3     
  27 C27           -7.5865    -1.7450     3.4478 C.3     
  28 H28           -8.1430    -3.8470     8.7524 H       
  29 H29           -8.9352    -0.8657    11.8791 H       
  30 H30          -10.5799    -1.4208    11.4850 H       
  31 H31          -10.0675    -1.7876    13.8833 H       
  32 H32          -10.3055    -3.3353    13.0369 H       
  33 H33           -8.6609    -2.7801    13.4309 H       
  34 H34            0.9948     3.0846     0.0095 H       
  35 H35            4.8245     1.1050     0.8507 H       
  36 H36            4.8070     1.1152    -0.9292 H       
  37 H37            6.7968     2.3068    -0.0518 H       
  38 H38            5.7180     3.4214    -0.9249 H       
  39 H39            5.7355     3.4113     0.8549 H       
  40 H40           -4.2315     0.3768    -0.4688 H       
  41 H41           -3.6557    -1.3074    -0.4834 H       
  42 H42           -3.4274    -1.2508     1.9850 H       
  43 H43           -4.0032     0.4333     1.9997 H       
  44 H44           -5.4610    -1.9613     3.7237 H       
  45 H45           -6.0368    -0.2771     3.7384 H       
  46 H46           -7.6994    -2.7201     2.9738 H       
  47 H47           -8.2752    -1.0359     2.9885 H       
@<TRIPOS>BOND
   1    1    2 2
   2    1   17 1
   3    1    5 1
   4    2    3 1
   5    3    4 2
   6    4    5 1
   7    4   23 1
   8    6    7 2
   9    6   10 1
  10    6   27 1
  11    7    8 1
  12    8    9 2
  13    9   10 1
  14    9   11 1
  15   11   12 am
  16   11   28 1
  17   12   13 1
  18   12   14 2
  19   13   15 1
  20   15   16 1
  21   15   29 1
  22   15   30 1
  23   16   31 1
  24   16   32 1
  25   16   33 1
  26   17   18 am
  27   17   34 1
  28   18   19 2
  29   18   20 1
  30   20   21 1
  31   21   22 1
  32   21   35 1
  33   21   36 1
  34   22   37 1
  35   22   38 1
  36   22   39 1
  37   23   24 1
  38   23   40 1
  39   23   41 1
  40   24   25 1
  41   24   42 1
  42   24   43 1
  43   25   26 1
  44   26   27 1
  45   26   44 1
  46   26   45 1
  47   27   46 1
  48   27   47 1

#	End of record

