#	Name: ASD02560490
#	Creating user name:	WinNT
#	Creation time:	15. 06. 2019 20:25

#	Modifying user name:	WinNT
#	Modification time:	15. 06. 2019 20:25

#	Program:	/corina/corina34_cracker 3.40 0067  02.08.2006

@<TRIPOS>MOLECULE
ASD02560490
  40   43    0    0    0
SMALL
NO_CHARGES


@<TRIPOS>ATOM
   1 C1            -0.0049     1.4164     0.0629 C.2     
   2 C2             0.0088     0.0120    -0.0057 C.2     
   3 C3             1.1787    -0.6576    -0.0253 C.2     
   4 N4             2.3689     0.0175     0.0206 N.pl3   
   5 C5             2.3869     1.3920     0.0876 C.2     
   6 C6             1.1681     2.1023     0.1091 C.2     
   7 C7             3.6686    -0.4072     0.0143 C.2     
   8 C8             4.4586     0.7237     0.0779 C.2     
   9 N9             3.6463     1.7966     0.1211 N.2     
  10 C10            5.9356     0.7515     0.0960 C.2     
  11 N11            4.1117    -1.7297    -0.0451 N.3     
  12 C12            2.9881    -2.6675     0.0802 C.3     
  13 C13            2.3636    -2.9539    -1.3080 C.3     
  14 S14            6.9788    -0.6635     0.0387 S.3     
  15 C15            3.4862    -4.0456     0.5626 C.3     
  16 C16            2.6536    -5.1008    -0.1865 C.3     
  17 C17            1.6786    -4.3271    -1.0979 C.3     
  18 C18            6.6929     1.8658     0.1531 C.2     
  19 C19            8.0549     1.6371     0.1587 C.2     
  20 C20            8.4129     0.3521     0.1046 C.2     
  21 C21            6.1003     3.2504     0.2061 C.3     
  22 H22           -0.9445     1.9489     0.0743 H       
  23 H23           -0.9228    -0.5331    -0.0425 H       
  24 H24            1.1771    -1.7364    -0.0774 H       
  25 H25            1.1669     3.1810     0.1619 H       
  26 H26            4.6313    -1.8992    -0.8932 H       
  27 H27            2.2371    -2.2724     0.7644 H       
  28 H28            1.6289    -2.1911    -1.5658 H       
  29 H29            3.1370    -3.0210    -2.0731 H       
  30 H30            4.5429    -4.1652     0.3236 H       
  31 H31            3.3326    -4.1429     1.6373 H       
  32 H32            3.3063    -5.7325    -0.7890 H       
  33 H33            2.0960    -5.7102     0.5247 H       
  34 H34            0.7145    -4.2011    -0.6052 H       
  35 H35            1.5567    -4.8424    -2.0507 H       
  36 H36            8.7772     2.4388     0.2015 H       
  37 H37            9.4306    -0.0093     0.1001 H       
  38 H38            5.9454     3.5397     1.2455 H       
  39 H39            6.7816     3.9557    -0.2697 H       
  40 H40            5.1452     3.2571    -0.3192 H       
@<TRIPOS>BOND
   1    1    2 1
   2    1    6 2
   3    1   22 1
   4    2    3 2
   5    2   23 1
   6    3    4 1
   7    3   24 1
   8    4    5 1
   9    4    7 1
  10    5    6 1
  11    5    9 2
  12    6   25 1
  13    7    8 2
  14    7   11 1
  15    8    9 1
  16    8   10 1
  17   10   14 1
  18   10   18 2
  19   11   12 1
  20   11   26 1
  21   12   15 1
  22   12   13 1
  23   12   27 1
  24   13   17 1
  25   13   28 1
  26   13   29 1
  27   14   20 1
  28   15   16 1
  29   15   30 1
  30   15   31 1
  31   16   17 1
  32   16   32 1
  33   16   33 1
  34   17   34 1
  35   17   35 1
  36   18   19 1
  37   18   21 1
  38   19   20 2
  39   19   36 1
  40   20   37 1
  41   21   38 1
  42   21   39 1
  43   21   40 1

#	End of record

