#	Name: ASD03430443
#	Creating user name:	WinNT
#	Creation time:	15. 06. 2019 20:41

#	Modifying user name:	WinNT
#	Modification time:	15. 06. 2019 20:41

#	Program:	/corina/corina34_cracker 3.40 0067  02.08.2006

@<TRIPOS>MOLECULE
ASD03430443
  57   62    0    0    0
SMALL
NO_CHARGES


@<TRIPOS>ATOM
   1 N1            -0.0819     1.4527     0.5902 N.am    
   2 C2            -0.0918     0.1696     0.9893 C.2     
   3 C3             1.2956    -0.1470     1.5055 C.3     
   4 C4             2.0577     1.1462     1.3293 C.ar    
   5 C5             3.3568     1.5124     1.6042 C.ar    
   6 C6             3.7850     2.7990     1.3290 C.ar    
   7 C7             2.9061     3.7140     0.7781 C.ar    
   8 C8             1.6027     3.3502     0.5017 C.ar    
   9 C9             1.1648     2.0539     0.7765 C.ar    
  10 O10           -1.0352    -0.5915     0.9447 O.2     
  11 O11            1.1704    -1.8000     6.8934 O.3     
  12 C12            2.1115    -2.8866     6.9074 C.3     
  13 C13            2.0967    -3.3719     5.4385 C.3     
  14 C14            1.6612    -2.1208     4.6999 C.ar    
  15 C15            1.1353    -1.2514     5.6480 C.ar    
  16 C16            0.6673    -0.0078     5.2347 C.ar    
  17 C17            0.7211     0.3474     3.8975 C.ar    
  18 C18            1.2419    -0.5340     2.9610 C.ar    
  19 C19            1.7109    -1.7693     3.3689 C.ar    
  20 O20            0.2615     1.5632     3.5009 O.3     
  21 O21            1.8922    -1.1892     0.7309 O.3     
  22 F22            0.7506     4.2505    -0.0356 F       
  23 C23           -1.2432     2.1398     0.0198 C.3     
  24 C24           -0.9397     2.5454    -1.3995 C.ar    
  25 C25           -1.4405     3.7321    -1.9014 C.ar    
  26 C26           -1.1622     4.1041    -3.2033 C.ar    
  27 C27           -0.3826     3.2896    -4.0033 C.ar    
  28 C28            0.1190     2.1034    -3.5011 C.ar    
  29 C29           -0.1558     1.7335    -2.1978 C.ar    
  30 C30           -2.4320     1.2137     0.0343 C.ar    
  31 C31           -3.4902     1.4608     0.8887 C.ar    
  32 C32           -4.5806     0.6113     0.9021 C.ar    
  33 C33           -4.6131    -0.4850     0.0607 C.ar    
  34 C34           -3.5553    -0.7315    -0.7944 C.ar    
  35 C35           -2.4668     0.1204    -0.8108 C.ar    
  36 H36            4.0406     0.7958     2.0347 H       
  37 H37            4.8031     3.0883     1.5441 H       
  38 H38            3.2407     4.7181     0.5634 H       
  39 H39            3.1041    -2.5341     7.1876 H       
  40 H40            1.7778    -3.6778     7.5787 H       
  41 H41            3.0916    -3.6849     5.1216 H       
  42 H42            1.3745    -4.1766     5.3012 H       
  43 H43            0.2611     0.6825     5.9592 H       
  44 H44            2.1173    -2.4587     2.6436 H       
  45 H45            0.9326     2.2594     3.5098 H       
  46 H46            1.4093    -2.0265     0.7598 H       
  47 H47           -1.4669     3.0275     0.6114 H       
  48 H48           -2.0496     4.3684    -1.2764 H       
  49 H49           -1.5540     5.0309    -3.5957 H       
  50 H50           -0.1657     3.5799    -5.0206 H       
  51 H51            0.7277     1.4669    -4.1262 H       
  52 H52            0.2391     0.8085    -1.8043 H       
  53 H53           -3.4648     2.3173     1.5461 H       
  54 H54           -5.4070     0.8039     1.5702 H       
  55 H55           -5.4647    -1.1491     0.0717 H       
  56 H56           -3.5805    -1.5883    -1.4515 H       
  57 H57           -1.6420    -0.0702    -1.4815 H       
@<TRIPOS>BOND
   1    1    2 am
   2    1    9 1
   3    1   23 1
   4    2    3 1
   5    2   10 2
   6    3    4 1
   7    3   18 1
   8    3   21 1
   9    4    5 ar
  10    4    9 ar
  11    5    6 ar
  12    5   36 1
  13    6    7 ar
  14    6   37 1
  15    7    8 ar
  16    7   38 1
  17    8    9 ar
  18    8   22 1
  19   11   12 1
  20   11   15 1
  21   12   13 1
  22   12   39 1
  23   12   40 1
  24   13   14 1
  25   13   41 1
  26   13   42 1
  27   14   15 ar
  28   14   19 ar
  29   15   16 ar
  30   16   17 ar
  31   16   43 1
  32   17   18 ar
  33   17   20 1
  34   18   19 ar
  35   19   44 1
  36   20   45 1
  37   21   46 1
  38   23   24 1
  39   23   30 1
  40   23   47 1
  41   24   25 ar
  42   24   29 ar
  43   25   26 ar
  44   25   48 1
  45   26   27 ar
  46   26   49 1
  47   27   28 ar
  48   27   50 1
  49   28   29 ar
  50   28   51 1
  51   29   52 1
  52   30   31 ar
  53   30   35 ar
  54   31   32 ar
  55   31   53 1
  56   32   33 ar
  57   32   54 1
  58   33   34 ar
  59   33   55 1
  60   34   35 ar
  61   34   56 1
  62   35   57 1

#	End of record

