#	Name: ASD01811928
#	Creating user name:	WinNT
#	Creation time:	15. 06. 2019 19:27

#	Modifying user name:	WinNT
#	Modification time:	15. 06. 2019 19:27

#	Program:	/corina/corina34_cracker 3.40 0067  02.08.2006

@<TRIPOS>MOLECULE
ASD01811928
  79   84    0    0    0
SMALL
NO_CHARGES


@<TRIPOS>ATOM
   1 C1            -0.0166     1.3752     0.0096 C.ar    
   2 C2             0.0021    -0.0041     0.0020 C.ar    
   3 C3             1.2069    -0.6854    -0.0127 C.ar    
   4 C4             2.4015     0.0090    -0.0199 C.ar    
   5 C5             2.3992     1.3949    -0.0129 C.ar    
   6 C6             1.1824     2.0872     0.0020 C.ar    
   7 C7             1.1687     3.5673     0.0096 C.2     
   8 C8             0.8638     4.2641     1.1700 C.2     
   9 C9             0.8600     5.6649     1.1413 C.2     
  10 N10            1.1485     6.3188     0.0010 N.am    
  11 C11            1.4484     5.6445    -1.1404 C.2     
  12 C12            1.4717     4.2950    -1.1639 C.2     
  13 C13            1.1388     7.7837    -0.0103 C.3     
  14 C14            0.1060     8.2791    -1.0247 C.3     
  15 C15            0.0958     9.8090    -1.0365 C.3     
  16 C16            1.4822    10.3252    -1.4268 C.3     
  17 C17            2.5150     9.8299    -0.4124 C.3     
  18 C18            2.5252     8.3000    -0.4006 C.3     
  19 O19            3.5721     2.0784    -0.0195 O.3     
  20 O20            0.5939     6.2940     2.1534 O.2     
  21 O21           -1.1889     7.7969    -0.6601 O.3     
  22 C22            4.7736     1.3050    -0.0337 C.3     
  23 C23            5.9651     2.2277    -0.0393 C.ar    
  24 C24            6.5202     2.6437     1.1574 C.ar    
  25 C25            7.6114     3.4888     1.1579 C.ar    
  26 C26            8.1537     3.9229    -0.0496 C.ar    
  27 C27            7.5907     3.5010    -1.2519 C.ar    
  28 C28            6.5030     2.6512    -1.2411 C.ar    
  29 C29            9.3272     4.8325    -0.0551 C.2     
  30 C30            9.9950     5.3364     1.0781 C.2     
  31 N31           10.9735     6.0986     0.6670 N.2     
  32 N32           10.9693     6.1116    -0.7331 N.pl3   
  33 C33            9.9585     5.3274    -1.1587 C.2     
  34 C34           11.9049     6.8463    -1.5880 C.3     
  35 C35           11.8929     8.3269    -1.2027 C.3     
  36 C36           12.9585     9.0724    -2.0087 C.3     
  37 C37           12.9465    10.5530    -1.6234 C.3     
  38 C38           11.5695    11.1475    -1.9258 C.3     
  39 C39           10.5039    10.4021    -1.1197 C.3     
  40 C40           10.5160     8.9214    -1.5051 C.3     
  41 H41           -0.9588     1.9031     0.0169 H       
  42 H42           -0.9271    -0.5546     0.0079 H       
  43 H43            1.2133    -1.7654    -0.0182 H       
  44 H44            3.3380    -0.5288    -0.0307 H       
  45 H45            0.6323     3.7344     2.0822 H       
  46 H46            1.6754     6.1965    -2.0405 H       
  47 H47            1.7166     3.7731    -2.0771 H       
  48 H48            0.8796     8.1531     0.9819 H       
  49 H49            0.3652     7.9098    -2.0169 H       
  50 H50           -0.6399    10.1619    -1.7591 H       
  51 H51           -0.1633    10.1783    -0.0442 H       
  52 H52            1.7414     9.9559    -2.4190 H       
  53 H53            1.4750    11.4151    -1.4352 H       
  54 H54            3.5027    10.1977    -0.6904 H       
  55 H55            2.2559    10.1992     0.5798 H       
  56 H56            3.2610     7.9471     0.3221 H       
  57 H57            2.7844     7.9307    -1.3928 H       
  58 H58           -1.8947     8.0729    -1.2607 H       
  59 H59            4.8086     0.6718     0.8528 H       
  60 H60            4.7934     0.6807    -0.9271 H       
  61 H61            6.0988     2.3068     2.0930 H       
  62 H62            8.0439     3.8133     2.0929 H       
  63 H63            8.0071     3.8349    -2.1908 H       
  64 H64            6.0685     2.3200    -2.1727 H       
  65 H65            9.7421     5.1291     2.1074 H       
  66 H66            9.6949     5.1286    -2.1870 H       
  67 H67           12.9096     6.4447    -1.4562 H       
  68 H68           11.6049     6.7397    -2.6305 H       
  69 H69           12.1062     8.4271    -0.1384 H       
  70 H70           13.9394     8.6488    -1.7933 H       
  71 H71           12.7452     8.9722    -3.0730 H       
  72 H72           13.1597    10.6532    -0.5591 H       
  73 H73           13.7056    11.0841    -2.1976 H       
  74 H74           11.5609    12.2024    -1.6512 H       
  75 H75           11.3562    11.0473    -2.9900 H       
  76 H76           10.7172    10.5023    -0.0555 H       
  77 H77            9.5230    10.8256    -1.3351 H       
  78 H78           10.3027     8.8213    -2.5693 H       
  79 H79            9.7568     8.3904    -0.9308 H       
@<TRIPOS>BOND
   1    1    2 ar
   2    1    6 ar
   3    1   41 1
   4    2    3 ar
   5    2   42 1
   6    3    4 ar
   7    3   43 1
   8    4    5 ar
   9    4   44 1
  10    5    6 ar
  11    5   19 1
  12    6    7 1
  13    7    8 2
  14    7   12 1
  15    8    9 1
  16    8   45 1
  17    9   10 am
  18    9   20 2
  19   10   11 1
  20   10   13 1
  21   11   12 2
  22   11   46 1
  23   12   47 1
  24   13   14 1
  25   13   18 1
  26   13   48 1
  27   14   15 1
  28   14   21 1
  29   14   49 1
  30   15   16 1
  31   15   50 1
  32   15   51 1
  33   16   17 1
  34   16   52 1
  35   16   53 1
  36   17   18 1
  37   17   54 1
  38   17   55 1
  39   18   56 1
  40   18   57 1
  41   19   22 1
  42   21   58 1
  43   22   23 1
  44   22   59 1
  45   22   60 1
  46   23   24 ar
  47   23   28 ar
  48   24   25 ar
  49   24   61 1
  50   25   26 ar
  51   25   62 1
  52   26   27 ar
  53   26   29 1
  54   27   28 ar
  55   27   63 1
  56   28   64 1
  57   29   30 1
  58   29   33 2
  59   30   31 2
  60   30   65 1
  61   31   32 1
  62   32   33 1
  63   32   34 1
  64   33   66 1
  65   34   35 1
  66   34   67 1
  67   34   68 1
  68   35   36 1
  69   35   40 1
  70   35   69 1
  71   36   37 1
  72   36   70 1
  73   36   71 1
  74   37   38 1
  75   37   72 1
  76   37   73 1
  77   38   39 1
  78   38   74 1
  79   38   75 1
  80   39   40 1
  81   39   76 1
  82   39   77 1
  83   40   78 1
  84   40   79 1

#	End of record

