#	Name: ASD00310112
#	Creating user name:	WinNT
#	Creation time:	15. 06. 2019 18:33

#	Modifying user name:	WinNT
#	Modification time:	15. 06. 2019 18:33

#	Program:	/corina/corina34_cracker 3.40 0067  02.08.2006

@<TRIPOS>MOLECULE
ASD00310112
  47   50    0    0    0
SMALL
NO_CHARGES


@<TRIPOS>ATOM
   1 N1            -0.0170     1.3570     0.0654 N.pl3   
   2 C2            -0.0004     0.0272     0.3204 C.2     
   3 C3             1.2888    -0.4060     0.4299 C.2     
   4 C4             2.1456     0.7769     0.2210 C.ar    
   5 C5             3.5212     0.9809     0.2099 C.ar    
   6 C6             4.0238     2.2544    -0.0241 C.ar    
   7 C7             3.1480     3.3227    -0.2462 C.ar    
   8 C8             1.7864     3.1232    -0.2351 C.ar    
   9 C9             1.2692     1.8514    -0.0028 C.ar    
  10 C10            1.7350    -1.7772     0.7017 C.2     
  11 O11            2.9228    -2.0269     0.7744 O.2     
  12 O12            0.8278    -2.7603     0.8707 O.3     
  13 C13            5.4899     2.4821    -0.0379 C.ar    
  14 C14            6.0803     3.1670    -1.0974 C.ar    
  15 C15            7.4494     3.3763    -1.1045 C.ar    
  16 C16            8.2296     2.9037    -0.0579 C.ar    
  17 C17            7.6441     2.2241     0.9936 C.ar    
  18 C18            6.2793     2.0164     1.0118 C.ar    
  19 O19            8.0292     4.0440    -2.1365 O.3     
  20 C20            7.1663     4.5017    -3.1795 C.3     
  21 C21            9.7192     3.1319    -0.0686 C.3     
  22 C22           10.4079     2.6440    -1.3541 C.3     
  23 C23           11.2725     3.9136    -1.2790 C.3     
  24 C24           10.1212     4.5559    -0.4873 C.3     
  25 O25           10.3578     2.6836     1.1285 O.3     
  26 Cl26           3.7836     4.9117    -0.5373 Cl      
  27 C27            1.3410    -4.0924     1.1364 C.3     
  28 H28           -0.8203     1.8869    -0.0563 H       
  29 H29           -0.8761    -0.5967     0.4222 H       
  30 H30            4.1945     0.1543     0.3824 H       
  31 H31            1.1182     3.9539    -0.4072 H       
  32 H32            5.4723     3.5334    -1.9112 H       
  33 H33            8.2554     1.8584     1.8054 H       
  34 H34            5.8242     1.4889     1.8370 H       
  35 H35            7.7552     5.0171    -3.9383 H       
  36 H36            6.6581     3.6496    -3.6308 H       
  37 H37            6.4275     5.1876    -2.7651 H       
  38 H38           10.9740     1.7219    -1.2231 H       
  39 H39            9.7467     2.6166    -2.2202 H       
  40 H40           12.1851     3.7865    -0.6968 H       
  41 H41           11.4491     4.3796    -2.2484 H       
  42 H42            9.3816     5.0512    -1.1165 H       
  43 H43           10.4558     5.1772     0.3434 H       
  44 H44            9.9430     3.0063     1.9402 H       
  45 H45            0.5084    -4.7863     1.2517 H       
  46 H46            1.9684    -4.4126     0.3046 H       
  47 H47            1.9316    -4.0781     2.0524 H       
@<TRIPOS>BOND
   1    1    2 1
   2    1    9 1
   3    1   28 1
   4    2    3 2
   5    2   29 1
   6    3    4 1
   7    3   10 1
   8    4    5 ar
   9    4    9 ar
  10    5    6 ar
  11    5   30 1
  12    6    7 ar
  13    6   13 1
  14    7    8 ar
  15    7   26 1
  16    8    9 ar
  17    8   31 1
  18   10   11 2
  19   10   12 1
  20   12   27 1
  21   13   14 ar
  22   13   18 ar
  23   14   15 ar
  24   14   32 1
  25   15   16 ar
  26   15   19 1
  27   16   17 ar
  28   16   21 1
  29   17   18 ar
  30   17   33 1
  31   18   34 1
  32   19   20 1
  33   20   35 1
  34   20   36 1
  35   20   37 1
  36   21   22 1
  37   21   24 1
  38   21   25 1
  39   22   23 1
  40   22   38 1
  41   22   39 1
  42   23   24 1
  43   23   40 1
  44   23   41 1
  45   24   42 1
  46   24   43 1
  47   25   44 1
  48   27   45 1
  49   27   46 1
  50   27   47 1

#	End of record

