#	Name: ASD00840130
#	Creating user name:	WinNT
#	Creation time:	15. 06. 2019 18:37

#	Modifying user name:	WinNT
#	Modification time:	15. 06. 2019 18:37

#	Program:	/corina/corina34_cracker 3.40 0067  02.08.2006

@<TRIPOS>MOLECULE
ASD00840130
  82   87    0    0    0
SMALL
NO_CHARGES


@<TRIPOS>ATOM
   1 N1             0.0401     1.3329     0.1176 N.3     
   2 C2            -0.4880     1.7367    -1.1930 C.3     
   3 C3             0.4081     1.1713    -2.2974 C.3     
   4 N4             0.4590    -0.2928    -2.1818 N.3     
   5 C5             0.9871    -0.6967    -0.8712 C.3     
   6 C6             0.0910    -0.1313     0.2332 C.3     
   7 N7            -2.1739     5.0911     3.1094 N.am    
   8 C8            -2.1926     3.7954     2.7541 C.2     
   9 C9            -0.8881     3.1862     3.2220 C.3     
  10 C10           -0.1605     4.3357     3.8807 C.ar    
  11 C11            1.0657     4.4349     4.5000 C.ar    
  12 C12            1.4789     5.6486     5.0240 C.ar    
  13 C13            0.6541     6.7592     4.9220 C.ar    
  14 C14           -0.5757     6.6591     4.3013 C.ar    
  15 C15           -0.9954     5.4403     3.7723 C.ar    
  16 O16           -3.0866     3.2217     2.1687 O.2     
  17 F17            1.0552     7.9440     5.4325 F       
  18 F18            2.6808     5.7504     5.6327 F       
  19 C19           -1.9840     1.0250     3.8933 C.ar    
  20 C20           -1.1468     2.0851     4.2178 C.ar    
  21 C21           -0.5532     2.1161     5.4674 C.ar    
  22 C22           -0.8194     1.0804     6.3527 C.ar    
  23 C23           -1.6618     0.0585     5.9631 C.ar    
  24 N24           -2.2132     0.0565     4.7642 N.ar    
  25 O25           -2.5765     0.9858     2.6734 O.3     
  26 C26           -3.4261    -0.1303     2.4004 C.3     
  27 C27           -3.9994    -0.0013     0.9877 C.3     
  28 S28           -3.4038     6.1535     2.7914 S.o2    
  29 O29           -2.8247     7.4511     2.7973 O.2     
  30 O30           -4.1137     5.6243     1.6800 O.2     
  31 C31           -4.5100     6.0960     4.1616 C.ar    
  32 C32           -4.3266     6.9484     5.2343 C.ar    
  33 C33           -5.1944     6.9032     6.3093 C.ar    
  34 C34           -6.2460     6.0060     6.3114 C.ar    
  35 C35           -6.4300     5.1542     5.2383 C.ar    
  36 C36           -5.5647     5.2023     4.1614 C.ar    
  37 C37           -0.0985     2.6644     2.0492 C.2     
  38 O38            1.0739     2.9516     1.9315 O.2     
  39 N39           -0.6953     1.8787     1.1311 N.am    
  40 N40            1.4427    -2.7372    -5.4744 N.3     
  41 C41            2.1577    -3.0037    -4.2198 C.3     
  42 C42            1.3854    -2.3888    -3.0504 C.3     
  43 C43            1.2498    -0.8798    -3.2717 C.3     
  44 C44            0.5451    -0.6291    -4.6078 C.3     
  45 C45            1.3418    -1.2950    -5.7320 C.3     
  46 C46            2.0810    -3.4299    -6.6015 C.3     
  47 H47           -1.5001     1.3499    -1.3121 H       
  48 H48           -0.5041     2.8246    -1.2591 H       
  49 H49            0.0020     1.4453    -3.2711 H       
  50 H50            1.4136     1.5794    -2.1945 H       
  51 H51            1.0032    -1.7846    -0.8052 H       
  52 H52            1.9992    -0.3098    -0.7521 H       
  53 H53            0.4971    -0.4053     1.2069 H       
  54 H54           -0.9144    -0.5393     0.1302 H       
  55 H55            1.7041     3.5673     4.5772 H       
  56 H56           -1.2135     7.5274     4.2258 H       
  57 H57            0.1025     2.9273     5.7474 H       
  58 H58           -0.3720     1.0741     7.3357 H       
  59 H59           -1.8719    -0.7497     6.6479 H       
  60 H60           -2.8500    -1.0525     2.4760 H       
  61 H61           -4.2419    -0.1513     3.1230 H       
  62 H62           -4.6474    -0.8527     0.7795 H       
  63 H63           -4.5755     0.9209     0.9122 H       
  64 H64           -3.1836     0.0196     0.2651 H       
  65 H65           -3.5050     7.6494     5.2326 H       
  66 H66           -5.0507     7.5687     7.1477 H       
  67 H67           -6.9236     5.9702     7.1516 H       
  68 H68           -7.2514     4.4530     5.2402 H       
  69 H69           -5.7106     4.5394     3.3214 H       
  70 H70           -1.6470     1.7008     1.1900 H       
  71 H71            2.2435    -4.0803    -4.0723 H       
  72 H72            3.1536    -2.5635    -4.2688 H       
  73 H73            0.3942    -2.8386    -2.9923 H       
  74 H74            1.9244    -2.5734    -2.1211 H       
  75 H75            2.2398    -0.4240    -3.2899 H       
  76 H76           -0.4593    -1.0512    -4.5742 H       
  77 H77            0.4837     0.4435    -4.7912 H       
  78 H78            2.3415    -0.8628    -5.7739 H       
  79 H79            0.8350    -1.1306    -6.6829 H       
  80 H80            2.0758    -4.5043    -6.4177 H       
  81 H81            1.5315    -3.2155    -7.5181 H       
  82 H82            3.1095    -3.0841    -6.7052 H       
@<TRIPOS>BOND
   1    1    2 1
   2    1    6 1
   3    1   39 1
   4    2    3 1
   5    2   47 1
   6    2   48 1
   7    3    4 1
   8    3   49 1
   9    3   50 1
  10    4    5 1
  11    4   43 1
  12    5    6 1
  13    5   51 1
  14    5   52 1
  15    6   53 1
  16    6   54 1
  17    7    8 am
  18    7   15 1
  19    7   28 am
  20    8    9 1
  21    8   16 2
  22    9   10 1
  23    9   20 1
  24    9   37 1
  25   10   11 ar
  26   10   15 ar
  27   11   12 ar
  28   11   55 1
  29   12   13 ar
  30   12   18 1
  31   13   14 ar
  32   13   17 1
  33   14   15 ar
  34   14   56 1
  35   19   20 ar
  36   19   24 ar
  37   19   25 1
  38   20   21 ar
  39   21   22 ar
  40   21   57 1
  41   22   23 ar
  42   22   58 1
  43   23   24 ar
  44   23   59 1
  45   25   26 1
  46   26   27 1
  47   26   60 1
  48   26   61 1
  49   27   62 1
  50   27   63 1
  51   27   64 1
  52   28   29 2
  53   28   30 2
  54   28   31 1
  55   31   32 ar
  56   31   36 ar
  57   32   33 ar
  58   32   65 1
  59   33   34 ar
  60   33   66 1
  61   34   35 ar
  62   34   67 1
  63   35   36 ar
  64   35   68 1
  65   36   69 1
  66   37   38 2
  67   37   39 am
  68   39   70 1
  69   40   41 1
  70   40   45 1
  71   40   46 1
  72   41   42 1
  73   41   71 1
  74   41   72 1
  75   42   43 1
  76   42   73 1
  77   42   74 1
  78   43   44 1
  79   43   75 1
  80   44   45 1
  81   44   76 1
  82   44   77 1
  83   45   78 1
  84   45   79 1
  85   46   80 1
  86   46   81 1
  87   46   82 1

#	End of record

