#	Name: ASD01901605
#	Creating user name:	WinNT
#	Creation time:	15. 06. 2019 19:54

#	Modifying user name:	WinNT
#	Modification time:	15. 06. 2019 19:54

#	Program:	/corina/corina34_cracker 3.40 0067  02.08.2006

@<TRIPOS>MOLECULE
ASD01901605
  46   50    0    0    0
SMALL
NO_CHARGES


@<TRIPOS>ATOM
   1 C1             0.3500     1.4780     0.0983 C.3     
   2 N2             0.3534     0.0095     0.1364 N.3     
   3 C3            -0.9297    -0.5069     0.6271 C.3     
   4 C4            -0.9119    -2.0376     0.5255 C.3     
   5 O5            -0.7994    -2.3857    -0.8582 O.3     
   6 C6             0.1237    -1.7009    -1.5881 C.ar    
   7 C7             0.4935    -2.1985    -2.8289 C.ar    
   8 C8             1.4286    -1.5227    -3.6007 C.ar    
   9 N9             1.8005    -2.0265    -4.8524 N.pl3   
  10 C10            0.9223    -2.8498    -5.5636 C.2     
  11 N11           -0.3077    -3.1359    -5.2283 N.2     
  12 N12           -0.8777    -3.9881    -6.1796 N.pl3   
  13 H13           -1.7814    -4.3395    -6.1503 H       
  14 C14            0.0439    -4.2474    -7.1593 C.ar    
  15 C15            0.0276    -5.0126    -8.3250 C.ar    
  16 C16            1.1706    -5.0481    -9.0993 C.ar    
  17 C17            2.2915    -4.3305    -8.7025 C.ar    
  18 N18            2.2904    -3.6144    -7.6012 N.ar    
  19 C19            1.2142    -3.5412    -6.8216 C.ar    
  20 C20            1.9939    -0.3457    -3.1286 C.ar    
  21 C21            1.6276     0.1499    -1.8931 C.ar    
  22 C22            0.6933    -0.5246    -1.1144 C.ar    
  23 C23            0.0999     2.0158     1.4837 C.ar    
  24 C24           -1.1831     2.3519     1.8734 C.ar    
  25 C25           -1.4125     2.8452     3.1442 C.ar    
  26 C26           -0.3591     3.0021     4.0254 C.ar    
  27 C27            0.9238     2.6651     3.6359 C.ar    
  28 C28            1.1526     2.1678     2.3666 C.ar    
  29 H29            1.3153     1.8344    -0.2610 H       
  30 H30           -0.4371     1.8222    -0.5727 H       
  31 H31           -1.0698    -0.2107     1.6667 H       
  32 H32           -1.7413    -0.1091     0.0179 H       
  33 H33           -0.0587    -2.4338     1.0760 H       
  34 H34           -1.8367    -2.4450     0.9342 H       
  35 H35            0.0531    -3.1140    -3.1952 H       
  36 H36            2.6675    -1.8044    -5.2265 H       
  37 H37           -0.8553    -5.5631    -8.6144 H       
  38 H38            1.1927    -5.6309   -10.0083 H       
  39 H39            3.1827    -4.3623    -9.3117 H       
  40 H40            2.7204     0.1825    -3.7283 H       
  41 H41            2.0693     1.0658    -1.5292 H       
  42 H42           -2.0062     2.2294     1.1850 H       
  43 H43           -2.4148     3.1085     3.4485 H       
  44 H44           -0.5382     3.3882     5.0180 H       
  45 H45            1.7469     2.7880     4.3242 H       
  46 H46            2.1543     1.9010     2.0636 H       
@<TRIPOS>BOND
   1    1    2 1
   2    1   23 1
   3    1   29 1
   4    1   30 1
   5    2   22 1
   6    2    3 1
   7    3    4 1
   8    3   31 1
   9    3   32 1
  10    4    5 1
  11    4   33 1
  12    4   34 1
  13    5    6 1
  14    6   22 ar
  15    6    7 ar
  16    7    8 ar
  17    7   35 1
  18    8    9 1
  19    8   20 ar
  20    9   10 1
  21    9   36 1
  22   10   19 1
  23   10   11 2
  24   11   12 1
  25   12   13 1
  26   12   14 1
  27   14   19 ar
  28   14   15 ar
  29   15   16 ar
  30   15   37 1
  31   16   17 ar
  32   16   38 1
  33   17   18 ar
  34   17   39 1
  35   18   19 ar
  36   20   21 ar
  37   20   40 1
  38   21   22 ar
  39   21   41 1
  40   23   28 ar
  41   23   24 ar
  42   24   25 ar
  43   24   42 1
  44   25   26 ar
  45   25   43 1
  46   26   27 ar
  47   26   44 1
  48   27   28 ar
  49   27   45 1
  50   28   46 1

#	End of record

