#	Name: ASD01881795
#	Creating user name:	WinNT
#	Creation time:	15. 06. 2019 19:43

#	Modifying user name:	WinNT
#	Modification time:	15. 06. 2019 19:43

#	Program:	/corina/corina34_cracker 3.40 0067  02.08.2006

@<TRIPOS>MOLECULE
ASD01881795
  48   51    0    0    0
SMALL
NO_CHARGES


@<TRIPOS>ATOM
   1 C1            -0.7424     1.2511     0.0905 C.2     
   2 C2            -0.9294    -0.2379    -0.0478 C.3     
   3 O3             0.3421     1.7003     0.3955 O.2     
   4 N4            -1.7789     2.0838    -0.1303 N.am    
   5 C5            -1.5971     3.5312     0.0041 C.3     
   6 C6            -2.6346     4.2574    -0.8544 C.3     
   7 C7            -2.4447     5.7691    -0.7141 C.3     
   8 C8            -2.6233     6.1717     0.7512 C.3     
   9 C9            -1.5858     5.4455     1.6097 C.3     
  10 C10           -1.7757     3.9338     1.4694 C.3     
  11 O11           -2.4460     7.5836     0.8823 O.3     
  12 N12           -4.8174    10.2582     5.0328 N.pl3   
  13 N13           -4.4518    11.5465     4.6154 N.2     
  14 N14           -3.7767    11.4672     3.5234 N.2     
  15 C15           -3.6460    10.1799     3.1457 C.ar    
  16 C16           -4.3061     9.3857     4.0993 C.ar    
  17 C17           -3.0175     9.5609     2.0564 C.ar    
  18 C18           -3.0552     8.1870     1.9378 C.ar    
  19 C19           -3.7129     7.4133     2.8911 C.ar    
  20 C20           -4.3312     8.0029     3.9575 C.ar    
  21 C21           -5.5867     9.9097     6.2299 C.3     
  22 C22           -7.0783     9.8900     5.8898 C.3     
  23 C23           -8.0459     9.4313     6.9826 C.3     
  24 C24           -7.9767    10.9093     6.5932 C.3     
  25 Br25          -2.1223    10.6032     0.7571 Br      
  26 H26           -1.2291    -0.6572     0.9127 H       
  27 H27           -1.7024    -0.4397    -0.7893 H       
  28 H28            0.0079    -0.6938    -0.3667 H       
  29 H29           -2.6452     1.7247    -0.3781 H       
  30 H30           -0.5954     3.8040    -0.3281 H       
  31 H31           -2.5073     3.9706    -1.8983 H       
  32 H32           -3.6363     3.9847    -0.5222 H       
  33 H33           -1.4431     6.0419    -1.0463 H       
  34 H34           -3.1839     6.2865    -1.3257 H       
  35 H35           -3.6250     5.8989     1.0834 H       
  36 H36           -0.5842     5.7183     1.2775 H       
  37 H37           -1.7131     5.7323     2.6536 H       
  38 H38           -2.7774     3.6610     1.8016 H       
  39 H39           -1.0366     3.4164     2.0810 H       
  40 H40           -3.7352     6.3387     2.7861 H       
  41 H41           -4.8388     7.3943     4.6912 H       
  42 H42           -5.2816     8.9249     6.5838 H       
  43 H43           -5.4013    10.6492     7.0089 H       
  44 H44           -7.3222     9.6297     4.8599 H       
  45 H45           -8.9268     8.8696     6.6715 H       
  46 H46           -7.6199     9.1436     7.9438 H       
  47 H47           -7.5051    11.5940     7.2982 H       
  48 H48           -8.8119    11.3200     6.0259 H       
@<TRIPOS>BOND
   1    1    2 1
   2    1    3 2
   3    1    4 am
   4    2   26 1
   5    2   27 1
   6    2   28 1
   7    4    5 1
   8    4   29 1
   9    5    6 1
  10    5   10 1
  11    5   30 1
  12    6    7 1
  13    6   31 1
  14    6   32 1
  15    7    8 1
  16    7   33 1
  17    7   34 1
  18    8    9 1
  19    8   11 1
  20    8   35 1
  21    9   10 1
  22    9   36 1
  23    9   37 1
  24   10   38 1
  25   10   39 1
  26   11   18 1
  27   12   13 1
  28   12   16 1
  29   12   21 1
  30   13   14 2
  31   14   15 1
  32   15   16 ar
  33   15   17 ar
  34   16   20 ar
  35   17   18 ar
  36   17   25 1
  37   18   19 ar
  38   19   20 ar
  39   19   40 1
  40   20   41 1
  41   21   22 1
  42   21   42 1
  43   21   43 1
  44   22   23 1
  45   22   24 1
  46   22   44 1
  47   23   24 1
  48   23   45 1
  49   23   46 1
  50   24   47 1
  51   24   48 1

#	End of record

