#	Name: ASD01816408
#	Creating user name:	WinNT
#	Creation time:	15. 06. 2019 19:35

#	Modifying user name:	WinNT
#	Modification time:	15. 06. 2019 19:35

#	Program:	/corina/corina34_cracker 3.40 0067  02.08.2006

@<TRIPOS>MOLECULE
ASD01816408
  53   58    0    0    0
SMALL
NO_CHARGES


@<TRIPOS>ATOM
   1 C1            -0.0167     1.3813     0.0096 C.ar    
   2 C2             0.0021    -0.0041     0.0020 C.ar    
   3 C3             1.1984    -0.6909    -0.0127 C.ar    
   4 C4             2.4015     0.0059    -0.0204 C.ar    
   5 C5             2.3790     1.4106    -0.0132 C.ar    
   6 C6             1.1663     2.0916     0.0022 C.ar    
   7 N7             3.6053    -0.6773    -0.0347 N.pl3   
   8 C8             4.7970    -0.0587    -0.0423 C.2     
   9 C9             4.9000     1.3102    -0.0368 C.2     
  10 C10            3.6670     2.1301    -0.0217 C.2     
  11 C11            5.9971     2.2728    -0.0424 C.2     
  12 N12            5.4246     3.4960    -0.0318 N.am    
  13 N13            4.0323     3.3800    -0.0195 N.2     
  14 O14            7.1916     2.0227    -0.0536 O.2     
  15 C15            3.5779    -2.1420    -0.0413 C.3     
  16 C16            3.5555    -2.6376    -1.4643 C.ar    
  17 C17            4.7433    -2.8869    -2.1270 C.ar    
  18 C18            4.7260    -3.3407    -3.4313 C.ar    
  19 C19            3.5143    -3.5470    -4.0770 C.ar    
  20 C20            2.3234    -3.2963    -3.4089 C.ar    
  21 C21            2.3471    -2.8475    -2.1029 C.ar    
  22 N22            3.4934    -4.0072    -5.4010 N.pl3   
  23 C23            2.3886    -4.2484    -6.1424 C.2     
  24 C24            2.7952    -4.6778    -7.3595 C.2     
  25 C25            4.1942    -4.7001    -7.3633 C.2     
  26 N26            4.6136    -4.2927    -6.1923 N.2     
  27 C27            6.1294     4.7130    -0.0321 C.2     
  28 C28            6.5826     5.4614     1.0842 C.2     
  29 C29            6.5405     5.4433    -1.1025 C.2     
  30 O30            7.1696     6.5201    -0.6059 O.3     
  31 N31            7.1822     6.5114     0.6029 N.2     
  32 C32            6.4050     5.1104     2.5390 C.3     
  33 C33            6.3317     5.1101    -2.5572 C.3     
  34 H34           -0.9602     1.9068     0.0170 H       
  35 H35           -0.9289    -0.5515     0.0080 H       
  36 H36            1.2004    -1.7709    -0.0178 H       
  37 H37            1.1506     3.1715     0.0081 H       
  38 H38            5.6983    -0.6537    -0.0527 H       
  39 H39            4.4657    -2.5243     0.4626 H       
  40 H40            2.6861    -2.4911     0.4791 H       
  41 H41            5.6855    -2.7262    -1.6242 H       
  42 H42            5.6540    -3.5345    -3.9486 H       
  43 H43            1.3793    -3.4555    -3.9087 H       
  44 H44            1.4210    -2.6523    -1.5826 H       
  45 H45            1.3654    -4.1217    -5.8207 H       
  46 H46            2.1531    -4.9544    -8.1828 H       
  47 H47            4.8203    -4.9978    -8.1914 H       
  48 H48            7.2514     4.5108     2.8740 H       
  49 H49            6.3513     6.0250     3.1295 H       
  50 H50            5.4839     4.5415     2.6657 H       
  51 H51            5.3920     5.5445    -2.8983 H       
  52 H52            7.1546     5.5171    -3.1449 H       
  53 H53            6.2976     4.0277    -2.6808 H       
@<TRIPOS>BOND
   1    1    2 ar
   2    1    6 ar
   3    1   34 1
   4    2    3 ar
   5    2   35 1
   6    3    4 ar
   7    3   36 1
   8    4    5 ar
   9    4    7 1
  10    5    6 ar
  11    5   10 1
  12    6   37 1
  13    7    8 1
  14    7   15 1
  15    8    9 2
  16    8   38 1
  17    9   10 1
  18    9   11 1
  19   10   13 2
  20   11   12 am
  21   11   14 2
  22   12   13 1
  23   12   27 1
  24   15   16 1
  25   15   39 1
  26   15   40 1
  27   16   17 ar
  28   16   21 ar
  29   17   18 ar
  30   17   41 1
  31   18   19 ar
  32   18   42 1
  33   19   20 ar
  34   19   22 1
  35   20   21 ar
  36   20   43 1
  37   21   44 1
  38   22   23 1
  39   22   26 1
  40   23   24 2
  41   23   45 1
  42   24   25 1
  43   24   46 1
  44   25   26 2
  45   25   47 1
  46   27   29 2
  47   27   28 1
  48   28   32 1
  49   28   31 2
  50   29   30 1
  51   29   33 1
  52   30   31 1
  53   32   48 1
  54   32   49 1
  55   32   50 1
  56   33   51 1
  57   33   52 1
  58   33   53 1

#	End of record

