#	Name: ASD05060007
#	Creating user name:	WinNT
#	Creation time:	15. 06. 2019 20:56

#	Modifying user name:	WinNT
#	Modification time:	15. 06. 2019 20:56

#	Program:	/corina/corina34_cracker 3.40 0067  02.08.2006

@<TRIPOS>MOLECULE
ASD05060007
 132  132    0    0    0
SMALL
NO_CHARGES


@<TRIPOS>ATOM
   1 N1            -2.5407     4.8285    -2.6799 N.3     
   2 N2            -2.4388     3.4843    -3.2246 N.3     
   3 C3            -3.6853     2.7356    -3.0150 C.3     
   4 C4            -3.6733     2.1156    -1.6415 C.2     
   5 N5            -4.8054     2.1816    -0.8800 N.am    
   6 C6            -4.7106     1.5491     0.4553 C.3     
   7 C7            -5.7656     2.1496     1.3484 C.2     
   8 N8            -5.5198     2.2579     2.6828 N.am    
   9 C9            -6.5902     2.8555     3.5055 C.3     
  10 C10           -5.9968     3.9454     4.3602 C.2     
  11 N11           -6.7227     5.0827     4.5732 N.am    
  12 C12           -6.0713     6.1020     5.4268 C.3     
  13 C13           -6.0616     7.4152     4.6874 C.2     
  14 N14           -5.0444     8.2919     4.9099 N.am    
  15 C15           -5.0883     9.5608     4.1564 C.3     
  16 C16           -3.7656     9.7603     3.4622 C.2     
  17 N17           -3.7125    10.5814     2.3719 N.am    
  18 C18           -2.3781    10.7211     1.7459 C.3     
  19 C19           -2.5024    10.4144     0.2756 C.2     
  20 C20           -1.4824     9.5667    -0.3958 C.2     
  21 C21           -1.6086     9.2576    -1.8655 C.3     
  22 N22           -1.1949     7.8590    -2.0954 N.am    
  23 C23           -1.9149     7.1532    -3.0098 C.2     
  24 C24           -1.5422     5.7192    -3.2861 C.3     
  25 O25           -2.8434     7.6708    -3.5937 O.2     
  26 O26           -0.5523     9.1261     0.2364 O.2     
  27 O27           -3.4312    10.8571    -0.3573 O.2     
  28 O28           -2.7667     9.2025     3.8644 O.2     
  29 O29           -6.9474     7.6868     3.9048 O.2     
  30 O30           -4.8949     3.8154     4.8498 O.2     
  31 O31           -6.8194     2.5308     0.8846 O.2     
  32 O32           -2.6768     1.5676    -1.2201 O.2     
  33 C33           -0.1656     5.4254    -2.6865 C.3     
  34 C34           -1.8713    12.1528     1.9308 C.3     
  35 C35           -1.6063    12.4122     3.4152 C.3     
  36 C36           -0.5166    11.4604     3.9126 C.3     
  37 C37           -1.1458    13.8588     3.6058 C.3     
  38 C38           -4.8779     3.6865    -3.1351 C.3     
  39 C39           -4.8915     4.3138    -4.5305 C.3     
  40 C40           -6.0841     5.2647    -4.6506 C.3     
  41 N41           -6.0972     5.8653    -5.9867 N.pl3   
  42 C42           -7.0839     6.7594    -6.3289 C.2     
  43 N43           -8.0077     7.0728    -5.4644 N.2     
  44 N44           -7.0962     7.3231    -7.5828 N.pl3   
  45 C45           -7.6669     3.4477     2.5941 C.3     
  46 C46           -7.0272     4.4557     1.6372 C.3     
  47 C47           -8.0198     4.8054     0.5266 C.3     
  48 C48           -8.3260     2.3266     1.7880 C.3     
  49 C49           -4.9430     0.0423     0.3274 C.3     
  50 C50           -3.8127    -0.5802    -0.4946 C.3     
  51 C51           -4.0451    -2.0870    -0.6225 C.3     
  52 C52           -2.9147    -2.7094    -1.4445 C.3     
  53 N53           -3.1378    -4.1562    -1.5673 N.3     
  54 C54           -6.2092     9.5011     3.1167 C.3     
  55 C55           -5.9180     8.4029     2.1267 C.2     
  56 O56           -4.9130     7.7338     2.2414 O.2     
  57 N57           -6.7745     8.1642     1.1138 N.am    
  58 C58           -6.7752     4.9698     7.5176 C.2     
  59 C59           -6.8536     6.2539     6.7328 C.3     
  60 O60           -6.1570     4.0296     7.0775 O.2     
  61 O61           -7.3921     4.8706     8.7056 O.3     
  62 C62           -3.9291     8.4206    -1.6129 C.2     
  63 C63           -3.0626     9.4410    -2.3050 C.3     
  64 O64           -3.4504     7.6850    -0.7825 O.2     
  65 O65           -5.2328     8.3289    -1.9190 O.3     
  66 H66           -3.4727     5.1967    -2.7977 H       
  67 H67           -2.1915     3.5083    -4.2026 H       
  68 H68           -3.7688     1.9511    -3.7671 H       
  69 H69           -5.6160     2.6130    -1.1927 H       
  70 H70           -3.7237     1.7349     0.8789 H       
  71 H71           -4.6842     1.9575     3.0732 H       
  72 H72           -7.0305     2.0896     4.1440 H       
  73 H73           -7.6045     5.2137     4.1910 H       
  74 H74           -5.0476     5.7971     5.6441 H       
  75 H75           -4.3270     8.0929     5.5317 H       
  76 H76           -5.2685    10.3876     4.8435 H       
  77 H77           -4.4955    11.0412     2.0309 H       
  78 H78           -1.6819    10.0212     2.2080 H       
  79 H79           -0.9653     9.9273    -2.4362 H       
  80 H80           -0.4481     7.4634    -1.6194 H       
  81 H81           -1.5127     5.5525    -4.3629 H       
  82 H82            0.1038     4.3882    -2.8862 H       
  83 H83            0.5753     6.0863    -3.1364 H       
  84 H84           -0.1952     5.5922    -1.6098 H       
  85 H85           -0.9476    12.2868     1.3680 H       
  86 H86           -2.6229    12.8540     1.5680 H       
  87 H87           -2.5218    12.2446     3.9825 H       
  88 H88            0.3990    11.6280     3.3454 H       
  89 H89           -0.3277    11.6452     4.9701 H       
  90 H90           -0.8446    10.4298     3.7768 H       
  91 H91           -1.9553    14.5365     3.3346 H       
  92 H92           -0.8723    14.0186     4.6488 H       
  93 H93           -0.2818    14.0519     2.9700 H       
  94 H94           -5.8025     3.1314    -2.9772 H       
  95 H95           -4.7931     4.4722    -2.3844 H       
  96 H96           -3.9668     4.8689    -4.6884 H       
  97 H97           -4.9763     3.5281    -5.2812 H       
  98 H98           -7.0088     4.7096    -4.4927 H       
  99 H99           -5.9993     6.0504    -3.8999 H       
 100 H100          -5.4096     5.6321    -6.6300 H       
 101 H101          -8.7039     7.7036    -5.7058 H       
 102 H102          -6.4086     7.0899    -8.2261 H       
 103 H103          -7.7923     7.9539    -7.8242 H       
 104 H104          -8.4203     3.9503     3.2008 H       
 105 H105          -6.7623     5.3597     2.1856 H       
 106 H106          -6.1293     4.0207     1.1983 H       
 107 H107          -7.5640     5.5235    -0.1551 H       
 108 H108          -8.2847     3.9014    -0.0218 H       
 109 H109          -8.9177     5.2404     0.9655 H       
 110 H110          -7.6044     1.5270     1.6206 H       
 111 H111          -9.1801     1.9355     2.3408 H       
 112 H112          -8.6629     2.7188     0.8285 H       
 113 H113          -4.9611    -0.4081     1.3199 H       
 114 H114          -5.8959    -0.1374    -0.1705 H       
 115 H115          -3.7946    -0.1298    -1.4870 H       
 116 H116          -2.8598    -0.4005     0.0034 H       
 117 H117          -4.0631    -2.5374     0.3700 H       
 118 H118          -4.9979    -2.2667    -1.1204 H       
 119 H119          -2.8966    -2.2591    -2.4369 H       
 120 H120          -1.9619    -2.5297    -0.9466 H       
 121 H121          -2.4040    -4.5907    -2.1065 H       
 122 H122          -3.2229    -4.5873    -0.6590 H       
 123 H123          -7.1570     9.2988     3.6155 H       
 124 H124          -6.2704    10.4553     2.5933 H       
 125 H125          -7.5783     8.6994     1.0221 H       
 126 H126          -6.5871     7.4573     0.4766 H       
 127 H127          -6.4252     7.0657     7.3206 H       
 128 H128          -7.8961     6.4791     6.5078 H       
 129 H129          -7.3135     4.0271     9.1720 H       
 130 H130          -3.3988    10.4432    -2.0393 H       
 131 H131          -3.1356     9.3075    -3.3843 H       
 132 H132          -5.7481     7.6592    -1.4488 H       
@<TRIPOS>BOND
   1    1    2 1
   2    1   24 1
   3    1   66 1
   4    2    3 1
   5    2   67 1
   6    3    4 1
   7    3   38 1
   8    3   68 1
   9    4    5 am
  10    4   32 2
  11    5    6 1
  12    5   69 1
  13    6    7 1
  14    6   49 1
  15    6   70 1
  16    7    8 am
  17    7   31 2
  18    8    9 1
  19    8   71 1
  20    9   10 1
  21    9   45 1
  22    9   72 1
  23   10   11 am
  24   10   30 2
  25   11   12 1
  26   11   73 1
  27   12   13 1
  28   12   59 1
  29   12   74 1
  30   13   14 am
  31   13   29 2
  32   14   15 1
  33   14   75 1
  34   15   16 1
  35   15   54 1
  36   15   76 1
  37   16   17 am
  38   16   28 2
  39   17   18 1
  40   17   77 1
  41   18   19 1
  42   18   34 1
  43   18   78 1
  44   19   20 1
  45   19   27 2
  46   20   21 1
  47   20   26 2
  48   21   22 1
  49   21   63 1
  50   21   79 1
  51   22   23 am
  52   22   80 1
  53   23   24 1
  54   23   25 2
  55   24   33 1
  56   24   81 1
  57   33   82 1
  58   33   83 1
  59   33   84 1
  60   34   35 1
  61   34   85 1
  62   34   86 1
  63   35   36 1
  64   35   37 1
  65   35   87 1
  66   36   88 1
  67   36   89 1
  68   36   90 1
  69   37   91 1
  70   37   92 1
  71   37   93 1
  72   38   39 1
  73   38   94 1
  74   38   95 1
  75   39   40 1
  76   39   96 1
  77   39   97 1
  78   40   41 1
  79   40   98 1
  80   40   99 1
  81   41   42 1
  82   41  100 1
  83   42   43 2
  84   42   44 1
  85   43  101 1
  86   44  102 1
  87   44  103 1
  88   45   46 1
  89   45   48 1
  90   45  104 1
  91   46   47 1
  92   46  105 1
  93   46  106 1
  94   47  107 1
  95   47  108 1
  96   47  109 1
  97   48  110 1
  98   48  111 1
  99   48  112 1
 100   49   50 1
 101   49  113 1
 102   49  114 1
 103   50   51 1
 104   50  115 1
 105   50  116 1
 106   51   52 1
 107   51  117 1
 108   51  118 1
 109   52   53 1
 110   52  119 1
 111   52  120 1
 112   53  121 1
 113   53  122 1
 114   54   55 1
 115   54  123 1
 116   54  124 1
 117   55   56 2
 118   55   57 am
 119   57  125 1
 120   57  126 1
 121   58   59 1
 122   58   60 2
 123   58   61 1
 124   59  127 1
 125   59  128 1
 126   61  129 1
 127   62   63 1
 128   62   64 2
 129   62   65 1
 130   63  130 1
 131   63  131 1
 132   65  132 1

#	End of record

