#	Name: ASD01209048
#	Creating user name:	WinNT
#	Creation time:	15. 06. 2019 19:10

#	Modifying user name:	WinNT
#	Modification time:	15. 06. 2019 19:10

#	Program:	/corina/corina34_cracker 3.40 0067  02.08.2006

@<TRIPOS>MOLECULE
ASD01209048
  61   65    0    0    0
SMALL
NO_CHARGES


@<TRIPOS>ATOM
   1 C1            -2.1145     1.3011    -0.7912 C.3     
   2 C2            -2.0427    -0.2147    -0.9994 C.3     
   3 C3            -1.6686    -0.8953     0.3188 C.3     
   4 C4            -1.4227    -2.3851     0.0718 C.3     
   5 C5            -0.8565    -3.0142     1.3187 C.2     
   6 N6             0.3839    -2.6894     1.7338 N.am    
   7 C7             0.9411    -3.3356     2.8313 C.ar    
   8 N8            -2.6877    -3.0382    -0.2735 N.pl3   
   9 C9            -2.8817    -3.8859    -1.3328 C.ar    
  10 C10           -4.2331    -4.2809    -1.2941 C.ar    
  11 C11           -4.8233    -3.6089    -0.1405 C.2     
  12 N12           -3.8897    -2.9013     0.4285 N.2     
  13 C13           -6.5716    -6.6105    -0.6890 C.3     
  14 O14           -1.5170    -3.8128     1.9485 O.2     
  15 C15           -2.0540    -4.3743    -2.3402 C.ar    
  16 C16           -2.5650    -5.2368    -3.2862 C.ar    
  17 C17           -3.9010    -5.6239    -3.2442 C.ar    
  18 C18           -4.7289    -5.1576    -2.2651 C.ar    
  19 C19           -7.9126    -7.2933    -0.4125 C.3     
  20 C20           -6.6955    -8.1306    -0.8108 C.3     
  21 C21           -3.4110    -0.7202    -1.4669 C.3     
  22 C22           -3.8120     0.0233    -2.7436 C.3     
  23 O23           -3.8296     1.4294    -2.4889 O.3     
  24 C24           -2.5656     1.9666    -2.0940 C.3     
  25 C25            0.1199    -4.0025     3.7396 C.ar    
  26 C26            0.7186    -4.6323     4.8172 C.ar    
  27 C27            2.1119    -4.5608     4.9286 C.ar    
  28 N28            2.8139    -3.9020     4.0139 N.ar    
  29 N29            2.2566    -3.3232     3.0129 N.ar    
  30 C30            2.8002    -5.2164     6.0618 C.2     
  31 F31           -1.7614    -5.7104    -4.2636 F       
  32 O32            2.1558    -5.8186     6.8982 O.2     
  33 N33            4.1421    -5.1462     6.1670 N.am    
  34 S34           -6.4182    -5.6570    -2.2246 S.o2    
  35 O35           -6.5598    -6.5062    -3.3551 O.2     
  36 O36           -7.1418    -4.4378    -2.1289 O.2     
  37 H37           -2.8298     1.5267    -0.0003 H       
  38 H38           -1.1304     1.6774    -0.5117 H       
  39 H39           -1.2905    -0.4438    -1.7543 H       
  40 H40           -0.7633    -0.4391     0.7192 H       
  41 H41           -2.4827    -0.7751     1.0336 H       
  42 H42           -0.7157    -2.5054    -0.7490 H       
  43 H43            0.8879    -2.0047     1.2668 H       
  44 H44           -5.8498    -3.6880     0.1856 H       
  45 H45           -6.0215    -6.2169     0.1657 H       
  46 H46           -1.0162    -4.0784    -2.3805 H       
  47 H47           -4.2860    -6.2998    -3.9934 H       
  48 H48           -8.2445    -7.3493     0.6243 H       
  49 H49           -8.7026    -7.1696    -1.1532 H       
  50 H50           -6.6849    -8.5577    -1.8135 H       
  51 H51           -6.2268    -8.7374    -0.0361 H       
  52 H52           -3.3541    -1.7895    -1.6707 H       
  53 H53           -4.1525    -0.5355    -0.6896 H       
  54 H54           -3.0919    -0.1943    -3.5324 H       
  55 H55           -4.8041    -0.3017    -3.0571 H       
  56 H56           -2.6597     3.0414    -1.9395 H       
  57 H57           -1.8292     1.7744    -2.8743 H       
  58 H58           -0.9516    -4.0267     3.6066 H       
  59 H59            0.1284    -5.1625     5.5500 H       
  60 H60            4.6564    -4.6657     5.4995 H       
  61 H61            4.5935    -5.5762     6.9101 H       
@<TRIPOS>BOND
   1    1    2 1
   2    1   24 1
   3    1   37 1
   4    1   38 1
   5    2    3 1
   6    2   21 1
   7    2   39 1
   8    3    4 1
   9    3   40 1
  10    3   41 1
  11    4    5 1
  12    4    8 1
  13    4   42 1
  14    5    6 am
  15    5   14 2
  16    6    7 1
  17    6   43 1
  18    7   25 ar
  19    7   29 ar
  20    8    9 1
  21    8   12 1
  22    9   10 ar
  23    9   15 ar
  24   10   11 1
  25   10   18 ar
  26   11   12 2
  27   11   44 1
  28   13   19 1
  29   13   34 1
  30   13   20 1
  31   13   45 1
  32   15   16 ar
  33   15   46 1
  34   16   17 ar
  35   16   31 1
  36   17   18 ar
  37   17   47 1
  38   18   34 1
  39   19   20 1
  40   19   48 1
  41   19   49 1
  42   20   50 1
  43   20   51 1
  44   21   22 1
  45   21   52 1
  46   21   53 1
  47   22   23 1
  48   22   54 1
  49   22   55 1
  50   23   24 1
  51   24   56 1
  52   24   57 1
  53   25   26 ar
  54   25   58 1
  55   26   27 ar
  56   26   59 1
  57   27   28 ar
  58   27   30 1
  59   28   29 ar
  60   30   32 2
  61   30   33 am
  62   33   60 1
  63   33   61 1
  64   34   35 2
  65   34   36 2

#	End of record

