#	Name: ASD03091137
#	Creating user name:	WinNT
#	Creation time:	15. 06. 2019 20:30

#	Modifying user name:	WinNT
#	Modification time:	15. 06. 2019 20:30

#	Program:	/corina/corina34_cracker 3.40 0067  02.08.2006

@<TRIPOS>MOLECULE
ASD03091137
  20   21    0    0    0
SMALL
NO_CHARGES


@<TRIPOS>ATOM
   1 N1            -0.0155     1.2941     0.0092 N.2     
   2 C2             0.0021    -0.0041     0.0020 C.2     
   3 N3             1.1468    -0.7358    -0.0124 N.am    
   4 C4             2.3547    -0.1253    -0.0202 C.2     
   5 C5             2.3700     1.3451    -0.0129 C.ar    
   6 C6             3.5601     2.0696    -0.0195 C.ar    
   7 C7             3.5164     3.4473    -0.0117 C.ar    
   8 C8             2.2978     4.1152     0.0025 C.ar    
   9 C9             1.1114     3.4174     0.0092 C.ar    
  10 C10            1.1299     2.0210     0.0021 C.ar    
  11 O11            3.3882    -0.7684    -0.0323 O.2     
  12 C12            1.0730    -2.1989    -0.0191 C.3     
  13 Br13           5.1279     4.4367    -0.0200 Br      
  14 H14           -0.9416    -0.5293     0.0082 H       
  15 H15            4.5099     1.5555    -0.0302 H       
  16 H16            2.2815     5.1951     0.0088 H       
  17 H17            0.1704     3.9473     0.0207 H       
  18 H18            0.0283    -2.5101    -0.0109 H       
  19 H19            1.5595    -2.5832    -0.9156 H       
  20 H20            1.5761    -2.5922     0.8642 H       
@<TRIPOS>BOND
   1    1    2 2
   2    1   10 1
   3    2    3 1
   4    2   14 1
   5    3    4 am
   6    3   12 1
   7    4    5 1
   8    4   11 2
   9    5    6 ar
  10    5   10 ar
  11    6    7 ar
  12    6   15 1
  13    7    8 ar
  14    7   13 1
  15    8    9 ar
  16    8   16 1
  17    9   10 ar
  18    9   17 1
  19   12   18 1
  20   12   19 1
  21   12   20 1

#	End of record

