#	Name: ASD02198259
#	Creating user name:	WinNT
#	Creation time:	15. 06. 2019 20:19

#	Modifying user name:	WinNT
#	Modification time:	15. 06. 2019 20:19

#	Program:	/corina/corina34_cracker 3.40 0067  02.08.2006

@<TRIPOS>MOLECULE
ASD02198259
  35   37    0    0    0
SMALL
NO_CHARGES


@<TRIPOS>ATOM
   1 C1            -0.0166     1.3759     0.0096 C.2     
   2 C2             0.0021    -0.0041     0.0020 C.2     
   3 C3            -1.2154    -0.8198     0.0088 C.2     
   4 S4             1.5676     2.0058    -0.0021 S.3     
   5 C5             2.2774     0.3995    -0.0175 C.2     
   6 C6             1.2835    -0.5516    -0.0132 C.2     
   7 C7             3.6585     0.1258    -0.0329 C.2     
   8 C8             4.6310     1.2363    -0.0365 C.2     
   9 O9             4.0514    -1.0290    -0.0433 O.2     
  10 N10            1.5311    -1.9139    -0.0224 N.pl3   
  11 N11           -1.1583     2.1393     0.0193 N.pl3   
  12 O12            4.3521     2.5531    -0.0260 O.3     
  13 O13           -1.7309    -1.1525    -1.0424 O.2     
  14 N14            5.3577     3.2238    -0.0325 N.2     
  15 C15            6.4371     2.4820    -0.0480 C.2     
  16 C16            5.9938     1.1319    -0.0453 C.2     
  17 C17            7.8435     2.9571    -0.0602 C.ar    
  18 C18            8.1202     4.3224    -0.0551 C.ar    
  19 C19            8.8914     2.0391    -0.0711 C.ar    
  20 C20           10.1971     2.4862    -0.0820 C.ar    
  21 C21           10.4662     3.8429    -0.0816 C.ar    
  22 C22            9.4297     4.7587    -0.0660 C.ar    
  23 N23           -1.7643    -1.2016     1.1790 N.am    
  24 H24            2.4443    -2.2408    -0.0329 H       
  25 H25            0.7914    -2.5413    -0.0184 H       
  26 H26           -2.0284     1.7106     0.0212 H       
  27 H27           -1.0944     3.1072     0.0243 H       
  28 H28            6.5933     0.2337    -0.0544 H       
  29 H29            7.3116     5.0383    -0.0429 H       
  30 H30            8.6824     0.9795    -0.0706 H       
  31 H31           11.0102     1.7754    -0.0904 H       
  32 H32           11.4894     4.1885    -0.0898 H       
  33 H33            9.6453     5.8169    -0.0659 H       
  34 H34           -1.3534    -0.9365     2.0168 H       
  35 H35           -2.5701    -1.7415     1.1835 H       
@<TRIPOS>BOND
   1    1    2 2
   2    1    4 1
   3    1   11 1
   4    2    3 1
   5    2    6 1
   6    3   13 2
   7    3   23 am
   8    4    5 1
   9    5    6 2
  10    5    7 1
  11    6   10 1
  12    7    8 1
  13    7    9 2
  14    8   12 1
  15    8   16 2
  16   10   24 1
  17   10   25 1
  18   11   26 1
  19   11   27 1
  20   12   14 1
  21   14   15 2
  22   15   16 1
  23   15   17 1
  24   16   28 1
  25   17   18 ar
  26   17   19 ar
  27   18   22 ar
  28   18   29 1
  29   19   20 ar
  30   19   30 1
  31   20   21 ar
  32   20   31 1
  33   21   22 ar
  34   21   32 1
  35   22   33 1
  36   23   34 1
  37   23   35 1

#	End of record

