#	Name: ASD05430447
#	Creating user name:	WinNT
#	Creation time:	15. 06. 2019 21:00

#	Modifying user name:	WinNT
#	Modification time:	15. 06. 2019 21:00

#	Program:	/corina/corina34_cracker 3.40 0067  02.08.2006

@<TRIPOS>MOLECULE
ASD05430447
  59   63    0    0    0
SMALL
NO_CHARGES


@<TRIPOS>ATOM
   1 C1            -0.0228     1.3681     0.1727 C.ar    
   2 C2            -0.0158    -0.0182     0.3226 C.ar    
   3 C3            -1.2130    -0.7199     0.3823 C.ar    
   4 C4            -2.4135    -0.0495     0.2933 C.ar    
   5 C5            -2.4285     1.3412     0.1428 C.ar    
   6 C6            -1.2231     2.0481     0.0889 C.ar    
   7 C7            -4.8651     1.3677    -0.0474 C.2     
   8 C8            -3.7094     2.0590     0.0476 C.2     
   9 O9             1.1510     2.0515     0.1147 O.3     
  10 C10            1.5497    -1.6272     1.3663 C.2     
  11 N11            1.2027    -0.7055     0.4128 N.pl3   
  12 C12            2.8002    -2.0354     1.0775 C.2     
  13 N13            3.2100    -1.3840    -0.0210 N.2     
  14 C14            2.2620    -0.5846    -0.4286 C.2     
  15 C15            3.6008    -3.0484     1.8546 C.3     
  16 C16           -7.1939     0.0888    -1.0109 C.2     
  17 N17           -7.3109     1.3204    -0.4741 N.am    
  18 C18           -5.8129    -0.4828    -1.2119 C.3     
  19 C19           -6.2038     2.0167     0.0166 C.2     
  20 O20           -4.9082     0.0045    -0.2175 O.3     
  21 C21           -8.5009     2.1425    -0.2760 C.3     
  22 C22           -7.9421     3.4287     0.3689 C.3     
  23 N23           -6.4970     3.1802     0.4821 N.2     
  24 C24           -9.1572     2.4540    -1.5964 C.ar    
  25 C25          -10.3047     3.2242    -1.6326 C.ar    
  26 C26          -10.9072     3.5109    -2.8428 C.ar    
  27 C27          -10.3611     3.0265    -4.0193 C.ar    
  28 C28           -9.2118     2.2552    -3.9818 C.ar    
  29 C29           -8.6081     1.9742    -2.7709 C.ar    
  30 F30          -10.9495     3.3058    -5.2030 F       
  31 C31            1.0690     3.4698    -0.0396 C.3     
  32 O32           -8.1785    -0.5455    -1.3250 O.2     
  33 C33           -9.4855     1.4480     0.6669 C.3     
  34 C34           -5.8810    -2.0083    -1.1157 C.3     
  35 H35           -1.2029    -1.7936     0.4984 H       
  36 H36           -3.3429    -0.5978     0.3393 H       
  37 H37           -1.2301     3.1218    -0.0271 H       
  38 H38           -3.7250     3.1389     0.0537 H       
  39 H39            0.9392    -1.9590     2.1931 H       
  40 H40            2.3118     0.0645    -1.2903 H       
  41 H41            3.4127    -4.0446     1.4543 H       
  42 H42            4.6623    -2.8165     1.7679 H       
  43 H43            3.3065    -3.0168     2.9036 H       
  44 H44           -5.4492    -0.2021    -2.2003 H       
  45 H45           -8.1367     4.2906    -0.2693 H       
  46 H46           -8.3766     3.5792     1.3572 H       
  47 H47          -10.7306     3.6016    -0.7147 H       
  48 H48          -11.8038     4.1123    -2.8708 H       
  49 H49           -8.7850     1.8768    -4.8989 H       
  50 H50           -7.7117     1.3726    -2.7413 H       
  51 H51            0.5472     3.7048    -0.9672 H       
  52 H52            0.5234     3.8959     0.8023 H       
  53 H53            2.0741     3.8905    -0.0715 H       
  54 H54           -9.0077     1.2807     1.6322 H       
  55 H55          -10.3653     2.0772     0.8012 H       
  56 H56           -9.7849     0.4912     0.2391 H       
  57 H57           -6.5511    -2.3913    -1.8853 H       
  58 H58           -4.8848    -2.4263    -1.2603 H       
  59 H59           -6.2558    -2.2940    -0.1328 H       
@<TRIPOS>BOND
   1    1    2 ar
   2    1    9 1
   3    1    6 ar
   4    2    3 ar
   5    2   11 1
   6    3    4 ar
   7    3   35 1
   8    4    5 ar
   9    4   36 1
  10    5    6 ar
  11    5    8 1
  12    6   37 1
  13    7    8 2
  14    7   19 1
  15    7   20 1
  16    8   38 1
  17    9   31 1
  18   10   11 1
  19   10   12 2
  20   10   39 1
  21   11   14 1
  22   12   13 1
  23   12   15 1
  24   13   14 2
  25   14   40 1
  26   15   41 1
  27   15   42 1
  28   15   43 1
  29   16   17 am
  30   16   18 1
  31   16   32 2
  32   17   21 1
  33   17   19 1
  34   18   34 1
  35   18   20 1
  36   18   44 1
  37   19   23 2
  38   21   22 1
  39   21   24 1
  40   21   33 1
  41   22   23 1
  42   22   45 1
  43   22   46 1
  44   24   25 ar
  45   24   29 ar
  46   25   26 ar
  47   25   47 1
  48   26   27 ar
  49   26   48 1
  50   27   28 ar
  51   27   30 1
  52   28   29 ar
  53   28   49 1
  54   29   50 1
  55   31   51 1
  56   31   52 1
  57   31   53 1
  58   33   54 1
  59   33   55 1
  60   33   56 1
  61   34   57 1
  62   34   58 1
  63   34   59 1

#	End of record

