#	Name: ASD07930060
#	Creating user name:	WinNT
#	Creation time:	15. 06. 2019 21:11

#	Modifying user name:	WinNT
#	Modification time:	15. 06. 2019 21:11

#	Program:	/corina/corina34_cracker 3.40 0067  02.08.2006

@<TRIPOS>MOLECULE
ASD07930060
  51   53    0    0    0
SMALL
NO_CHARGES


@<TRIPOS>ATOM
   1 C1            -0.2486     1.3475     0.1723 C.ar    
   2 C2             1.0727     2.0579     0.0282 C.3     
   3 C3             1.9767     1.7163     1.2170 C.3     
   4 C4             1.5171     2.4564     2.4422 C.2     
   5 N5             0.7727     3.5697     2.3736 N.am    
   6 C6             0.3367     4.0627     1.1689 C.2     
   7 N7             0.8565     3.5159     0.0232 N.pl3   
   8 C8             1.7496     1.6310    -1.2758 C.3     
   9 N9            -0.5596     5.0370     1.1141 N.2     
  10 O10            1.8308     2.0305     3.5331 O.2     
  11 C11            0.4174     4.2733     3.6085 C.3     
  12 C12           -0.2891    -0.0354     0.2162 C.ar    
  13 C13           -1.5026    -0.6890     0.3482 C.ar    
  14 C14           -2.6747     0.0407     0.4367 C.ar    
  15 C15           -2.6328     1.4262     0.3931 C.ar    
  16 C16           -1.4187     2.0776     0.2664 C.ar    
  17 C17            3.3951     2.1118     0.8965 C.ar    
  18 C18            4.3936     1.1559     0.8857 C.ar    
  19 C19            5.6947     1.5188     0.5918 C.ar    
  20 C20            5.9972     2.8375     0.3081 C.ar    
  21 C21            4.9985     3.7932     0.3180 C.ar    
  22 C22            3.6967     3.4296     0.6077 C.ar    
  23 F23            0.8556    -0.7477     0.1298 F       
  24 F24           -3.8593    -0.5961     0.5650 F       
  25 F25           -3.7767     2.1399     0.4794 F       
  26 C26           -1.2173     5.4001     2.2147 C.2     
  27 C27           -1.1412     6.8238     2.7029 C.3     
  28 F28           -1.9079     6.9598     3.8652 F       
  29 F29            0.1902     7.1506     2.9816 F       
  30 F30           -1.6353     7.6825     1.7151 F       
  31 O31           -1.8786     4.5831     2.8247 O.2     
  32 S32            7.7010     3.3128    -0.0756 Du      
  33 F33            7.1749     4.2013    -1.3109 F       
  34 F34            9.2165     3.7356    -0.4169 F       
  35 F35            7.8370     2.0385    -1.0501 F       
  36 F36            7.5649     4.5871     0.8989 F       
  37 F37            8.2270     2.4243     1.1597 F       
  38 H38            1.9360     0.6435     1.4058 H       
  39 H39            1.0714     4.0612    -0.7497 H       
  40 H40            1.1082     1.8873    -2.1190 H       
  41 H41            2.7044     2.1473    -1.3754 H       
  42 H42            1.9185     0.5542    -1.2619 H       
  43 H43            1.1618     4.0595     4.3755 H       
  44 H44            0.3882     5.3464     3.4196 H       
  45 H45           -0.5621     3.9375     3.9491 H       
  46 H46           -1.5342    -1.7680     0.3817 H       
  47 H47           -1.3859     3.1566     0.2328 H       
  48 H48            4.1573     0.1257     1.1073 H       
  49 H49            6.4749     0.7721     0.5841 H       
  50 H50            5.2349     4.8235     0.0967 H       
  51 H51            2.9164     4.1763     0.6153 H       
@<TRIPOS>BOND
   1    1   12 ar
   2    1    2 1
   3    1   16 ar
   4    2    8 1
   5    2    3 1
   6    2    7 1
   7    3    4 1
   8    3   17 1
   9    3   38 1
  10    4    5 am
  11    4   10 2
  12    5    6 1
  13    5   11 1
  14    6    7 1
  15    6    9 2
  16    7   39 1
  17    8   40 1
  18    8   41 1
  19    8   42 1
  20    9   26 1
  21   11   43 1
  22   11   44 1
  23   11   45 1
  24   12   13 ar
  25   12   23 1
  26   13   14 ar
  27   13   46 1
  28   14   15 ar
  29   14   24 1
  30   15   16 ar
  31   15   25 1
  32   16   47 1
  33   17   18 ar
  34   17   22 ar
  35   18   19 ar
  36   18   48 1
  37   19   20 ar
  38   19   49 1
  39   20   21 ar
  40   20   32 1
  41   21   22 ar
  42   21   50 1
  43   22   51 1
  44   26   27 1
  45   26   31 2
  46   27   28 1
  47   27   29 1
  48   27   30 1
  49   32   33 1
  50   32   34 1
  51   32   35 1
  52   32   36 1
  53   32   37 1

#	End of record

