#	Name: ASD09116030
#	Creating user name:	WinNT
#	Creation time:	15. 06. 2019 21:20

#	Modifying user name:	WinNT
#	Modification time:	15. 06. 2019 21:20

#	Program:	/corina/corina34_cracker 3.40 0067  02.08.2006

@<TRIPOS>MOLECULE
ASD09116030
  82   89    0    0    0
SMALL
NO_CHARGES


@<TRIPOS>ATOM
   1 C1            -0.1972     1.3924     0.3553 C.ar    
   2 C2            -0.1561     0.0009     0.3060 C.ar    
   3 C3            -1.3304    -0.6968     0.1614 C.ar    
   4 N4            -2.4684    -0.0063     0.0741 N.ar    
   5 N5            -2.5095     1.2762     0.1195 N.ar    
   6 C6            -1.4152     2.0289     0.2632 C.ar    
   7 N7            -1.3329    -2.0919     0.1068 N.pl3   
   8 N8            -0.2156    -2.9387     0.1861 N.2     
   9 C9            -0.6604    -4.1690     0.0934 C.2     
  10 N10           -1.9917    -4.1426    -0.0392 N.2     
  11 C11           -2.4135    -2.8962    -0.0271 C.2     
  12 N12            0.1275    -5.3198     0.1273 N.pl3   
  13 C13           -0.4760    -6.5801     0.1228 C.ar    
  14 C14            0.1606    -7.6542    -0.4866 C.ar    
  15 C15           -1.7113    -6.7624     0.7329 C.ar    
  16 C16           -2.2995    -8.0136     0.7220 C.ar    
  17 C17           -1.6713    -9.0703     0.1146 C.ar    
  18 C18           -0.4375    -8.8995    -0.4902 C.ar    
  19 N19           -3.7267    -2.4812    -0.1409 N.pl3   
  20 C20            1.1589     2.0330     0.5155 C.3     
  21 C21            1.7850     1.4686     1.8027 C.3     
  22 C22            1.8300    -0.0585     1.7493 C.3     
  23 C23            1.2361    -0.5677     0.4244 C.3     
  24 C24            2.0320     1.5622    -0.6605 C.3     
  25 C25            2.0775     0.0351    -0.7139 C.3     
  26 C26           -1.5081     3.5084     0.3111 C.ar    
  27 C27           -2.4937     4.1227     1.0813 C.ar    
  28 C28           -2.5755     5.5000     1.1221 C.ar    
  29 C29           -1.6819     6.2701     0.4002 C.ar    
  30 C30           -0.7016     5.6656    -0.3665 C.ar    
  31 C31           -0.6063     4.2897    -0.4095 C.ar    
  32 C32           -3.6468    -8.2091     1.3859 C.3     
  33 C33           -3.4457    -9.0406     2.6552 C.3     
  34 C34           -3.4630   -10.5233     2.3400 C.3     
  35 C35           -2.2775   -11.0051     1.5273 C.3     
  36 C36           -2.3219   -10.4383     0.1058 C.3     
  37 N37           -3.4940   -11.2684     3.6056 N.3     
  38 C38           -3.6318   -12.7162     3.3632 C.3     
  39 C39           -2.4368   -13.4105     4.0498 C.3     
  40 C40           -1.9999   -12.3765     5.1206 C.3     
  41 C41           -2.2603   -11.0372     4.3869 C.3     
  42 C42           -3.6408     6.1658     1.9545 C.3     
  43 H43            1.0943    -5.2450     0.1540 H       
  44 H44            1.1225    -7.5156    -0.9577 H       
  45 H45           -2.2083    -5.9323     1.2128 H       
  46 H46            0.0531    -9.7353    -0.9669 H       
  47 H47           -4.4353    -3.1360    -0.2412 H       
  48 H48           -3.9399    -1.5352    -0.1206 H       
  49 H49            1.0803     3.1193     0.5576 H       
  50 H50            2.7983     1.8555     1.9102 H       
  51 H51            1.1898     1.7819     2.6604 H       
  52 H52            2.8645    -0.3917     1.8322 H       
  53 H53            1.2556    -0.4652     2.5816 H       
  54 H54            1.2223    -1.6570     0.3904 H       
  55 H55            1.6163     1.9432    -1.5933 H       
  56 H56            3.0435     1.9487    -0.5358 H       
  57 H57            3.1104    -0.2984    -0.6141 H       
  58 H58            1.6833    -0.3039    -1.6719 H       
  59 H59           -3.1925     3.5223     1.6449 H       
  60 H60           -1.7498     7.3474     0.4348 H       
  61 H61           -0.0069     6.2719    -0.9288 H       
  62 H62            0.1594     3.8189    -1.0083 H       
  63 H63           -4.0709    -7.2394     1.6466 H       
  64 H64           -4.3174    -8.7348     0.7061 H       
  65 H65           -2.4874    -8.7812     3.1052 H       
  66 H66           -4.2448    -8.8152     3.3614 H       
  67 H67           -4.3753   -10.7488     1.7878 H       
  68 H68           -1.3560   -10.6835     2.0126 H       
  69 H69           -2.2949   -12.0939     1.4794 H       
  70 H70           -3.3579   -10.3494    -0.2209 H       
  71 H71           -1.7772   -11.0986    -0.5690 H       
  72 H72           -4.5667   -13.0767     3.7924 H       
  73 H73           -3.6115   -12.9164     2.2919 H       
  74 H74           -2.7507   -14.3426     4.5196 H       
  75 H75           -1.6328   -13.5892     3.3358 H       
  76 H76           -2.6162   -12.4574     6.0159 H       
  77 H77           -0.9435   -12.4893     5.3642 H       
  78 H78           -1.4291   -10.8007     3.7226 H       
  79 H79           -2.4122   -10.2333     5.1071 H       
  80 H80           -3.2595     6.3403     2.9606 H       
  81 H81           -3.9152     7.1176     1.4997 H       
  82 H82           -4.5182     5.5210     2.0052 H       
@<TRIPOS>BOND
   1    1    2 ar
   2    1   20 1
   3    1    6 ar
   4    2    3 ar
   5    2   23 1
   6    3    4 ar
   7    3    7 1
   8    4    5 ar
   9    5    6 ar
  10    6   26 1
  11    7    8 1
  12    7   11 1
  13    8    9 2
  14    9   10 1
  15    9   12 1
  16   10   11 2
  17   11   19 1
  18   12   13 1
  19   12   43 1
  20   13   14 ar
  21   13   15 ar
  22   14   18 ar
  23   14   44 1
  24   15   16 ar
  25   15   45 1
  26   16   17 ar
  27   16   32 1
  28   17   18 ar
  29   17   36 1
  30   18   46 1
  31   19   47 1
  32   19   48 1
  33   20   21 1
  34   20   24 1
  35   20   49 1
  36   21   22 1
  37   21   50 1
  38   21   51 1
  39   22   23 1
  40   22   52 1
  41   22   53 1
  42   23   25 1
  43   23   54 1
  44   24   25 1
  45   24   55 1
  46   24   56 1
  47   25   57 1
  48   25   58 1
  49   26   27 ar
  50   26   31 ar
  51   27   28 ar
  52   27   59 1
  53   28   29 ar
  54   28   42 1
  55   29   30 ar
  56   29   60 1
  57   30   31 ar
  58   30   61 1
  59   31   62 1
  60   32   33 1
  61   32   63 1
  62   32   64 1
  63   33   34 1
  64   33   65 1
  65   33   66 1
  66   34   35 1
  67   34   37 1
  68   34   67 1
  69   35   36 1
  70   35   68 1
  71   35   69 1
  72   36   70 1
  73   36   71 1
  74   37   38 1
  75   37   41 1
  76   38   39 1
  77   38   72 1
  78   38   73 1
  79   39   40 1
  80   39   74 1
  81   39   75 1
  82   40   41 1
  83   40   76 1
  84   40   77 1
  85   41   78 1
  86   41   79 1
  87   42   80 1
  88   42   81 1
  89   42   82 1

#	End of record

