#	Name: ASD01915882
#	Creating user name:	WinNT
#	Creation time:	15. 06. 2019 20:06

#	Modifying user name:	WinNT
#	Modification time:	15. 06. 2019 20:06

#	Program:	/corina/corina34_cracker 3.40 0067  02.08.2006

@<TRIPOS>MOLECULE
ASD01915882
  41   43    0    0    0
SMALL
NO_CHARGES


@<TRIPOS>ATOM
   1 C1            -0.4074     1.7372     0.1057 C.ar    
   2 C2            -0.5393     0.3869     0.3747 C.ar    
   3 N3             0.5042    -0.3425     0.7080 N.ar    
   4 C4             1.7219     0.1797     0.8007 C.ar    
   5 C5             1.9345     1.5306     0.5452 C.ar    
   6 C6             0.8502     2.3289     0.1902 C.ar    
   7 C7            -1.8982    -0.2585     0.2852 C.3     
   8 O8             1.0151     3.6514    -0.0672 O.3     
   9 C9             2.2666     4.1707     0.0385 C.ar    
  10 C10            3.1970     3.9754    -0.9718 C.ar    
  11 N11            4.4122     4.4770    -0.8733 N.ar    
  12 C12            4.7911     5.1780     0.1772 C.ar    
  13 C13            3.9200     5.4148     1.2244 C.ar    
  14 C14            2.6312     4.9108     1.1592 C.ar    
  15 C15            2.8640    -0.6841     1.1801 C.2     
  16 N16            2.6648    -1.9936     1.4293 N.am    
  17 O17            3.9804    -0.2121     1.2665 O.2     
  18 C18            3.7518    -2.8277     1.6829 C.ar    
  19 C19            3.5503    -4.1949     1.8234 C.ar    
  20 C20            4.6506    -5.0176     2.0769 C.ar    
  21 C21            5.9138    -4.4212     2.1781 C.ar    
  22 C22            6.0260    -3.0547     2.0253 C.ar    
  23 N23            4.9656    -2.3091     1.7817 N.ar    
  24 C24            6.1929     5.7280     0.2375 C.3     
  25 C25            4.4910    -6.4324     2.2295 C.1     
  26 N26            4.3645    -7.5548     2.3506 N.1     
  27 H27           -1.2698     2.3254    -0.1712 H       
  28 H28            2.9252     1.9537     0.6214 H       
  29 H29           -2.0590    -0.6279    -0.7276 H       
  30 H30           -1.9525    -1.0899     0.9880 H       
  31 H31           -2.6659     0.4753     0.5306 H       
  32 H32            2.9231     3.4064    -1.8479 H       
  33 H33            4.2392     5.9895     2.0813 H       
  34 H34            1.9295     5.0806     1.9623 H       
  35 H35            1.7648    -2.3554     1.4322 H       
  36 H36            2.5590    -4.6150     1.7384 H       
  37 H37            6.7888    -5.0234     2.3737 H       
  38 H38            6.9973    -2.5889     2.1027 H       
  39 H39            6.2124     6.7225    -0.2082 H       
  40 H40            6.5147     5.7894     1.2771 H       
  41 H41            6.8654     5.0699    -0.3127 H       
@<TRIPOS>BOND
   1    1    2 ar
   2    1    6 ar
   3    1   27 1
   4    2    3 ar
   5    2    7 1
   6    3    4 ar
   7    4    5 ar
   8    4   15 1
   9    5    6 ar
  10    5   28 1
  11    6    8 1
  12    7   29 1
  13    7   30 1
  14    7   31 1
  15    8    9 1
  16    9   10 ar
  17    9   14 ar
  18   10   11 ar
  19   10   32 1
  20   11   12 ar
  21   12   13 ar
  22   12   24 1
  23   13   14 ar
  24   13   33 1
  25   14   34 1
  26   15   16 am
  27   15   17 2
  28   16   18 1
  29   16   35 1
  30   18   19 ar
  31   18   23 ar
  32   19   20 ar
  33   19   36 1
  34   20   21 ar
  35   20   25 1
  36   21   22 ar
  37   21   37 1
  38   22   23 ar
  39   22   38 1
  40   24   39 1
  41   24   40 1
  42   24   41 1
  43   25   26 3

#	End of record

