#	Name: ASD01150814
#	Creating user name:	WinNT
#	Creation time:	15. 06. 2019 19:05

#	Modifying user name:	WinNT
#	Modification time:	15. 06. 2019 19:05

#	Program:	/corina/corina34_cracker 3.40 0067  02.08.2006

@<TRIPOS>MOLECULE
ASD01150814
  53   54    0    0    0
SMALL
NO_CHARGES


@<TRIPOS>ATOM
   1 C1            -0.3752     1.6266    -1.0572 C.ar    
   2 N2            -0.4208     0.3035    -1.1279 N.ar    
   3 C3             0.6735    -0.4203    -0.9624 C.ar    
   4 C4             1.8772     0.2208    -0.7125 C.ar    
   5 C5             1.8893     1.6051    -0.6450 C.ar    
   6 N6             0.7591     2.2698    -0.8199 N.ar    
   7 C7             3.1746     2.3442    -0.3751 C.3     
   8 N8             3.7810     2.7533    -1.6491 N.3     
   9 C9             4.8912     3.6885    -1.4271 C.3     
  10 C10            5.4024     4.2044    -2.7742 C.3     
  11 C11            5.8703     3.0201    -3.6245 C.3     
  12 C12            4.7091     2.0376    -3.8001 C.3     
  13 C13            4.2179     1.5846    -2.4233 C.3     
  14 C14            4.4038     4.8669    -0.5817 C.3     
  15 C15            0.6129    -1.9238    -1.0439 C.3     
  16 S16           -1.8562     2.5521    -1.2913 S.3     
  17 C17           -3.0287     1.2026    -1.5746 C.3     
  18 C18           -4.4254     1.7814    -1.8092 C.3     
  19 C19           -5.4166     0.6407    -2.0486 C.3     
  20 C20           -6.8133     1.2195    -2.2833 C.3     
  21 C21           -7.8044     0.0788    -2.5227 C.3     
  22 C22           -9.2012     0.6576    -2.7573 C.3     
  23 H23            2.7857    -0.3462    -0.5732 H       
  24 H24            2.9659     3.2277     0.2282 H       
  25 H25            3.8630     1.6917     0.1619 H       
  26 H26            5.6987     3.1760    -0.9043 H       
  27 H27            4.5992     4.7290    -3.2916 H       
  28 H28            6.2366     4.8864    -2.6098 H       
  29 H29            6.1949     3.3787    -4.6013 H       
  30 H30            6.6995     2.5185    -3.1255 H       
  31 H31            3.8949     2.5281    -4.3336 H       
  32 H32            5.0479     1.1716    -4.3687 H       
  33 H33            5.0286     1.0819    -1.8958 H       
  34 H34            3.3818     0.8959    -2.5445 H       
  35 H35            4.1662     4.5191     0.4236 H       
  36 H36            5.1861     5.6241    -0.5287 H       
  37 H37            3.5121     5.2970    -1.0376 H       
  38 H38            0.7824    -2.2390    -2.0734 H       
  39 H39            1.3811    -2.3538    -0.4012 H       
  40 H40           -0.3686    -2.2662    -0.7159 H       
  41 H41           -2.7204     0.6312    -2.4501 H       
  42 H42           -3.0480     0.5490    -0.7024 H       
  43 H43           -4.7337     2.3528    -0.9337 H       
  44 H44           -4.4061     2.4350    -2.6813 H       
  45 H45           -5.1083     0.0693    -2.9241 H       
  46 H46           -5.4359    -0.0129    -1.1765 H       
  47 H47           -7.1216     1.7909    -1.4077 H       
  48 H48           -6.7940     1.8731    -3.1554 H       
  49 H49           -7.4962    -0.4927    -3.3982 H       
  50 H50           -7.8238    -0.5748    -1.6506 H       
  51 H51           -9.5094     1.2290    -1.8818 H       
  52 H52           -9.1818     1.3111    -3.6294 H       
  53 H53           -9.9073    -0.1551    -2.9279 H       
@<TRIPOS>BOND
   1    1    2 ar
   2    1    6 ar
   3    1   16 1
   4    2    3 ar
   5    3    4 ar
   6    3   15 1
   7    4    5 ar
   8    4   23 1
   9    5    6 ar
  10    5    7 1
  11    7    8 1
  12    7   24 1
  13    7   25 1
  14    8    9 1
  15    8   13 1
  16    9   10 1
  17    9   14 1
  18    9   26 1
  19   10   11 1
  20   10   27 1
  21   10   28 1
  22   11   12 1
  23   11   29 1
  24   11   30 1
  25   12   13 1
  26   12   31 1
  27   12   32 1
  28   13   33 1
  29   13   34 1
  30   14   35 1
  31   14   36 1
  32   14   37 1
  33   15   38 1
  34   15   39 1
  35   15   40 1
  36   16   17 1
  37   17   18 1
  38   17   41 1
  39   17   42 1
  40   18   19 1
  41   18   43 1
  42   18   44 1
  43   19   20 1
  44   19   45 1
  45   19   46 1
  46   20   21 1
  47   20   47 1
  48   20   48 1
  49   21   22 1
  50   21   49 1
  51   21   50 1
  52   22   51 1
  53   22   52 1
  54   22   53 1

#	End of record

