#	Name: ASD05513012
#	Creating user name:	WinNT
#	Creation time:	15. 06. 2019 21:01

#	Modifying user name:	WinNT
#	Modification time:	15. 06. 2019 21:01

#	Program:	/corina/corina34_cracker 3.40 0067  02.08.2006

@<TRIPOS>MOLECULE
ASD05513012
  23   24    0    0    0
SMALL
NO_CHARGES


@<TRIPOS>ATOM
   1 C1            -0.0107     1.3551     0.4068 C.2     
   2 C2             0.0021    -0.0041     0.0020 C.2     
   3 C3             1.1855    -0.6686    -0.1157 C.2     
   4 C4             2.5232    -0.0891    -0.3456 C.ar    
   5 C5             3.4219    -1.1665    -0.3933 C.ar    
   6 N6             2.7270    -2.3580    -0.2090 N.am    
   7 C7             1.4128    -2.1372    -0.0340 C.2     
   8 C8             2.9806     1.2184    -0.5046 C.ar    
   9 C9             4.3237     1.4530    -0.7098 C.ar    
  10 C10            5.2157     0.3907    -0.7581 C.ar    
  11 C11            4.7709    -0.9108    -0.6009 C.ar    
  12 O12            0.5621    -2.9848     0.1491 O.2     
  13 O13            1.0160     1.8893     0.7712 O.2     
  14 C14           -1.2983     2.1376     0.3785 C.3     
  15 F15            6.5301     0.6289    -0.9600 F       
  16 H16           -0.9263    -0.5123    -0.2129 H       
  17 H17            3.1394    -3.2359    -0.2033 H       
  18 H18            2.2854     2.0441    -0.4676 H       
  19 H19            4.6820     2.4644    -0.8335 H       
  20 H20            5.4745    -1.7291    -0.6408 H       
  21 H21           -1.8060     2.0367     1.3377 H       
  22 H22           -1.0804     3.1891     0.1916 H       
  23 H23           -1.9399     1.7530    -0.4144 H       
@<TRIPOS>BOND
   1    1    2 1
   2    1   13 2
   3    1   14 1
   4    2    3 2
   5    2   16 1
   6    3    4 1
   7    3    7 1
   8    4    5 ar
   9    4    8 ar
  10    5    6 1
  11    5   11 ar
  12    6    7 am
  13    6   17 1
  14    7   12 2
  15    8    9 ar
  16    8   18 1
  17    9   10 ar
  18    9   19 1
  19   10   11 ar
  20   10   15 1
  21   11   20 1
  22   14   21 1
  23   14   22 1
  24   14   23 1

#	End of record

