#	Name: ASD01150534
#	Creating user name:	WinNT
#	Creation time:	15. 06. 2019 19:04

#	Modifying user name:	WinNT
#	Modification time:	15. 06. 2019 19:04

#	Program:	/corina/corina34_cracker 3.40 0067  02.08.2006

@<TRIPOS>MOLECULE
ASD01150534
  52   54    0    0    0
SMALL
NO_CHARGES


@<TRIPOS>ATOM
   1 C1             0.2301     1.4779    -1.2933 C.ar    
   2 C2             0.2965     0.0986    -1.3217 C.ar    
   3 C3             1.5755     0.1144     0.7099 C.ar    
   4 C4             1.5111     1.5001     0.7413 C.ar    
   5 C5             0.8375     2.1832    -0.2613 C.ar    
   6 N6             0.7702     3.5806    -0.2334 N.am    
   7 C7            -0.4149     4.1907    -0.4104 C.2     
   8 N8            -0.5161     5.5327    -0.3892 N.am    
   9 C9             0.5822     6.2901    -0.1879 C.2     
  10 C10            1.8815     5.6289     0.0063 C.2     
  11 N11            1.9368     4.3233    -0.0160 N.2     
  12 O12            0.4989     7.5041    -0.1678 O.2     
  13 C13           -1.8198     6.1716    -0.5853 C.3     
  14 O14           -1.4119     3.5187    -0.5931 O.2     
  15 C15           -2.4970     6.3511     0.7489 C.ar    
  16 O16            3.0057     6.3636     0.2107 O.3     
  17 C17            4.2272     5.6440     0.3906 C.3     
  18 C18            0.9667    -0.5845    -0.3247 C.ar    
  19 C19           -3.4734     5.4600     1.1531 C.ar    
  20 C20           -4.0968     5.6210     2.3768 C.ar    
  21 C21           -3.7447     6.6753     3.2006 C.ar    
  22 C22           -2.7643     7.5721     2.7975 C.ar    
  23 C23           -2.1367     7.4047     1.5708 C.ar    
  24 N24            2.2534    -0.5783     1.7192 N.am    
  25 C25            2.1985    -1.9241     1.7668 C.2     
  26 O26            1.4734    -2.5287     1.0054 O.2     
  27 C27            3.0379    -2.6776     2.7660 C.3     
  28 C28            3.0229     0.1594     2.7242 C.3     
  29 O29           -2.4164     8.6098     3.6050 O.3     
  30 F30           -4.3546     6.8322     4.3959 F       
  31 C31           -1.3604     8.3788     4.5396 C.3     
  32 F32           -1.1820     8.2749     1.1753 F       
  33 H33           -0.2906     2.0091    -2.0764 H       
  34 H34           -0.1766    -0.4473    -2.1246 H       
  35 H35            1.9840     2.0458     1.5444 H       
  36 H36           -1.6804     7.1448    -1.0559 H       
  37 H37           -2.4394     5.5438    -1.2257 H       
  38 H38            5.0447     6.3485     0.5440 H       
  39 H39            4.1406     4.9930     1.2605 H       
  40 H40            4.4279     5.0418    -0.4954 H       
  41 H41            1.0168    -1.6631    -0.3498 H       
  42 H42           -3.7502     4.6364     0.5116 H       
  43 H43           -4.8595     4.9233     2.6896 H       
  44 H44            2.4668    -2.8249     3.6827 H       
  45 H45            3.3147    -3.6467     2.3507 H       
  46 H46            3.9394    -2.1063     2.9874 H       
  47 H47            2.4070     0.3170     3.6096 H       
  48 H48            3.9095    -0.4136     2.9955 H       
  49 H49            3.3245     1.1236     2.3150 H       
  50 H50           -1.1838     9.2847     5.1196 H       
  51 H51           -1.6402     7.5666     5.2106 H       
  52 H52           -0.4517     8.1088     4.0017 H       
@<TRIPOS>BOND
   1    1    2 ar
   2    1    5 ar
   3    1   33 1
   4    2   18 ar
   5    2   34 1
   6    3    4 ar
   7    3   24 1
   8    3   18 ar
   9    4    5 ar
  10    4   35 1
  11    5    6 1
  12    6    7 am
  13    6   11 1
  14    7    8 am
  15    7   14 2
  16    8    9 am
  17    8   13 1
  18    9   10 1
  19    9   12 2
  20   10   11 2
  21   10   16 1
  22   13   15 1
  23   13   36 1
  24   13   37 1
  25   15   19 ar
  26   15   23 ar
  27   16   17 1
  28   17   38 1
  29   17   39 1
  30   17   40 1
  31   18   41 1
  32   19   20 ar
  33   19   42 1
  34   20   21 ar
  35   20   43 1
  36   21   22 ar
  37   21   30 1
  38   22   23 ar
  39   22   29 1
  40   23   32 1
  41   24   25 am
  42   24   28 1
  43   25   26 2
  44   25   27 1
  45   27   44 1
  46   27   45 1
  47   27   46 1
  48   28   47 1
  49   28   48 1
  50   28   49 1
  51   29   31 1
  52   31   50 1
  53   31   51 1
  54   31   52 1

#	End of record

