#	Name: ASD03240451
#	Creating user name:	WinNT
#	Creation time:	15. 06. 2019 20:35

#	Modifying user name:	WinNT
#	Modification time:	15. 06. 2019 20:35

#	Program:	/corina/corina34_cracker 3.40 0067  02.08.2006

@<TRIPOS>MOLECULE
ASD03240451
  54   57    0    0    0
SMALL
NO_CHARGES


@<TRIPOS>ATOM
   1 C1             0.0564     1.5303    -0.0631 C.ar    
   2 C2            -0.5707     4.3247     1.0603 C.ar    
   3 C3            -1.3349     3.1738     1.1282 C.ar    
   4 C4            -1.3011     2.1821    -0.0060 C.3     
   5 C5            -0.5979     5.2363     2.0963 C.ar    
   6 C6            -1.3970     4.9956     3.2117 C.ar    
   7 C7            -2.1643     3.8347     3.2752 C.ar    
   8 C8            -2.1297     2.9297     2.2336 C.ar    
   9 C9            -1.4299     5.9724     4.3294 C.2     
  10 C10           -2.1635     5.8629     5.4745 C.2     
  11 N11           -1.9117     6.9535     6.2261 N.pl3   
  12 N12           -1.0008     7.7609     5.5342 N.2     
  13 C13           -0.7048     7.1776     4.4030 C.2     
  14 C14           -1.5748     2.9068    -1.3255 C.3     
  15 N15           -1.6606     1.9250    -2.4148 N.3     
  16 C16           -1.9232     2.5862    -3.7000 C.3     
  17 C17            0.1819     0.1748     0.1797 C.ar    
  18 C18            1.1735     2.2876    -0.3638 C.ar    
  19 C19            2.4182     1.6913    -0.4228 C.ar    
  20 C20            2.5469     0.3314    -0.1796 C.ar    
  21 C21            1.4243    -0.4262     0.1224 C.ar    
  22 O22            3.7702    -0.2577    -0.2374 O.3     
  23 C23            4.6189    -0.0669     0.8038 C.ar    
  24 N24            4.1985     0.5752     1.8805 N.ar    
  25 C25            5.9175    -0.5530     0.7288 C.ar    
  26 C26            6.7789    -0.3488     1.8083 C.ar    
  27 C27            6.2903     0.3411     2.9233 C.ar    
  28 C28            4.9837     0.7863     2.9187 C.ar    
  29 C29            8.1729    -0.8495     1.7744 C.2     
  30 N30            8.9892    -0.6423     2.8266 N.am    
  31 O31            8.5803    -1.4471     0.7979 O.2     
  32 H32            0.0519     4.5082     0.1971 H       
  33 H33           -2.0636     1.4200     0.1548 H       
  34 H34           -0.0006     6.1344     2.0425 H       
  35 H35           -2.7855     3.6433     4.1377 H       
  36 H36           -2.7245     2.0295     2.2816 H       
  37 H37           -2.8260     5.0498     5.7322 H       
  38 H38           -2.2955     7.1457     7.0959 H       
  39 H39           -0.0277     7.5571     3.6520 H       
  40 H40           -2.5160     3.4516    -1.2523 H       
  41 H41           -0.7648     3.6068    -1.5303 H       
  42 H42           -0.8240     1.3628    -2.4616 H       
  43 H43           -2.8669     3.1287    -3.6433 H       
  44 H44           -1.1156     3.2840    -3.9213 H       
  45 H45           -1.9820     1.8364    -4.4890 H       
  46 H46           -0.6922    -0.4144     0.4147 H       
  47 H47            1.0728     3.3461    -0.5531 H       
  48 H48            3.2903     2.2831    -0.6584 H       
  49 H49            1.5219    -1.4848     0.3125 H       
  50 H50            6.2556    -1.0811    -0.1505 H       
  51 H51            6.9257     0.5188     3.7784 H       
  52 H52            4.6003     1.3195     3.7760 H       
  53 H53            8.6640    -0.1653     3.6062 H       
  54 H54            9.9018    -0.9701     2.8045 H       
@<TRIPOS>BOND
   1    1   17 ar
   2    1   18 ar
   3    1    4 1
   4    2    3 ar
   5    2    5 ar
   6    2   32 1
   7    3    4 1
   8    3    8 ar
   9    4   14 1
  10    4   33 1
  11    5    6 ar
  12    5   34 1
  13    6    7 ar
  14    6    9 1
  15    7    8 ar
  16    7   35 1
  17    8   36 1
  18    9   10 2
  19    9   13 1
  20   10   11 1
  21   10   37 1
  22   11   12 1
  23   11   38 1
  24   12   13 2
  25   13   39 1
  26   14   15 1
  27   14   40 1
  28   14   41 1
  29   15   16 1
  30   15   42 1
  31   16   43 1
  32   16   44 1
  33   16   45 1
  34   17   21 ar
  35   17   46 1
  36   18   19 ar
  37   18   47 1
  38   19   20 ar
  39   19   48 1
  40   20   21 ar
  41   20   22 1
  42   21   49 1
  43   22   23 1
  44   23   24 ar
  45   23   25 ar
  46   24   28 ar
  47   25   26 ar
  48   25   50 1
  49   26   27 ar
  50   26   29 1
  51   27   28 ar
  52   27   51 1
  53   28   52 1
  54   29   30 am
  55   29   31 2
  56   30   53 1
  57   30   54 1

#	End of record

