#	Name: ASD01812793
#	Creating user name:	WinNT
#	Creation time:	15. 06. 2019 19:29

#	Modifying user name:	WinNT
#	Modification time:	15. 06. 2019 19:29

#	Program:	/corina/corina34_cracker 3.40 0067  02.08.2006

@<TRIPOS>MOLECULE
ASD01812793
  46   49    0    0    0
SMALL
NO_CHARGES


@<TRIPOS>ATOM
   1 C1             0.0577     1.4304    -0.6145 C.ar    
   2 C2             0.1013     0.0681    -0.8343 C.ar    
   3 C3             1.2833    -0.6330    -0.6482 C.ar    
   4 C4             2.4191     0.0258    -0.2438 C.ar    
   5 C5             2.3933     1.4052    -0.0169 C.ar    
   6 C6             1.1963     2.1093    -0.2059 C.ar    
   7 C7             3.8294    -0.4261     0.0430 C.3     
   8 N8             4.5723     0.7762     0.4378 N.am    
   9 C9             3.7391     1.8304     0.4017 C.2     
  10 C10            5.9884     0.8203     0.8104 C.3     
  11 C11            6.8241     1.0650    -0.4196 C.ar    
  12 C12            7.1242     2.3599    -0.8061 C.ar    
  13 C13            7.8918     2.5847    -1.9360 C.ar    
  14 C14            8.3597     1.5145    -2.6790 C.ar    
  15 C15            8.0603     0.2195    -2.2920 C.ar    
  16 C16            7.2964    -0.0054    -1.1596 C.ar    
  17 O17            1.1515     3.4479     0.0091 O.3     
  18 O18            4.0523     2.9728     0.6761 O.2     
  19 F19            9.1081     1.7338    -3.7822 F       
  20 F20            7.0081    -1.2693    -0.7793 F       
  21 F21            6.6676     3.4043    -0.0809 F       
  22 C22           -0.1276     4.0779    -0.0868 C.3     
  23 C23           -0.1314     5.3599     0.7516 C.3     
  24 C24           -1.4777     6.0684     0.5802 C.3     
  25 O25           -1.6961     6.3448    -0.8047 O.3     
  26 C26           -1.7496     5.1800    -1.6308 C.3     
  27 C27           -0.4142     4.4358    -1.5483 C.3     
  28 O28            0.0631     5.0306     2.1285 O.3     
  29 H29           -0.8654     1.9703    -0.7655 H       
  30 H30           -0.7890    -0.4540    -1.1523 H       
  31 H31            1.3109    -1.6987    -0.8211 H       
  32 H32            3.8323    -1.1522     0.8559 H       
  33 H33            4.2721    -0.8631    -0.8521 H       
  34 H34            6.1508     1.6261     1.5263 H       
  35 H35            6.2751    -0.1297     1.2614 H       
  36 H36            8.1254     3.5949    -2.2380 H       
  37 H37            8.4250    -0.6154    -2.8719 H       
  38 H38           -0.8969     3.3991     0.2814 H       
  39 H39            0.6712     6.0168     0.4163 H       
  40 H40           -2.2761     5.4269     0.9532 H       
  41 H41           -1.4705     7.0032     1.1407 H       
  42 H42           -2.5515     4.5269    -1.2868 H       
  43 H43           -1.9382     5.4748    -2.6631 H       
  44 H44            0.3827     5.0740    -1.9300 H       
  45 H45           -0.4681     3.5238    -2.1428 H       
  46 H46            0.0716     5.7966     2.7186 H       
@<TRIPOS>BOND
   1    1    2 ar
   2    1    6 ar
   3    1   29 1
   4    2    3 ar
   5    2   30 1
   6    3    4 ar
   7    3   31 1
   8    4    7 1
   9    4    5 ar
  10    5    6 ar
  11    5    9 1
  12    6   17 1
  13    7    8 1
  14    7   32 1
  15    7   33 1
  16    8    9 am
  17    8   10 1
  18    9   18 2
  19   10   11 1
  20   10   34 1
  21   10   35 1
  22   11   12 ar
  23   11   16 ar
  24   12   13 ar
  25   12   21 1
  26   13   14 ar
  27   13   36 1
  28   14   15 ar
  29   14   19 1
  30   15   16 ar
  31   15   37 1
  32   16   20 1
  33   17   22 1
  34   22   23 1
  35   22   27 1
  36   22   38 1
  37   23   24 1
  38   23   28 1
  39   23   39 1
  40   24   25 1
  41   24   40 1
  42   24   41 1
  43   25   26 1
  44   26   27 1
  45   26   42 1
  46   26   43 1
  47   27   44 1
  48   27   45 1
  49   28   46 1

#	End of record

