#	Name: ASD01410429
#	Creating user name:	WinNT
#	Creation time:	15. 06. 2019 19:17

#	Modifying user name:	WinNT
#	Modification time:	15. 06. 2019 19:17

#	Program:	/corina/corina34_cracker 3.40 0067  02.08.2006

@<TRIPOS>MOLECULE
ASD01410429
  58   62    0    0    0
SMALL
NO_CHARGES


@<TRIPOS>ATOM
   1 C1            -0.6066     3.5373    -2.9106 C.ar    
   2 C2            -0.8524     2.8716    -4.1131 C.ar    
   3 C3            -1.9995     2.1197    -4.2626 C.ar    
   4 C4            -2.9080     2.0227    -3.2247 C.ar    
   5 C5            -2.6725     2.6814    -2.0254 C.ar    
   6 C6            -1.5213     3.4344    -1.8625 C.ar    
   7 C7            -1.2636     4.1497    -0.5614 C.3     
   8 O8            -3.5691     2.5829    -1.0089 O.3     
   9 C9            -4.7263     1.9087    -1.2417 C.ar    
  10 C10           -4.7209     0.5171    -1.2811 C.ar    
  11 C11           -5.8846    -0.1837    -1.5159 C.ar    
  12 C12           -7.0743     0.5032    -1.7153 C.ar    
  13 C13           -7.0830     1.9097    -1.6761 C.ar    
  14 C14           -5.9038     2.6088    -1.4327 C.ar    
  15 F15           -2.3061     3.8818     0.3324 F       
  16 F16           -0.0552     3.7038    -0.0155 F       
  17 F17           -1.1905     5.5274    -0.7932 F       
  18 N18           -8.2661    -0.1542    -1.9545 N.pl3   
  19 C19           -9.4015     0.5395    -2.1441 C.2     
  20 N20           -9.4609     1.8421    -2.1172 N.2     
  21 C21           -8.3686     2.5970    -1.8936 C.2     
  22 O22           -8.4410     3.8136    -1.8712 O.2     
  23 C23           -8.2920    -1.6182    -2.0023 C.3     
  24 C24           -8.7129    -2.1573    -0.6594 C.ar    
  25 C25          -10.0569    -2.2496    -0.3410 C.ar    
  26 C26          -10.4435    -2.7447     0.8926 C.ar    
  27 C27           -9.4861    -3.1480     1.8076 C.ar    
  28 C28           -8.1421    -3.0565     1.4888 C.ar    
  29 C29           -7.7556    -2.5654     0.2535 C.ar    
  30 F30           -6.4439    -2.4761    -0.0576 F       
  31 F31           -9.8634    -3.6304     3.0118 F       
  32 F32          -10.9912    -1.8561    -1.2339 F       
  33 C33            0.6217     4.3434    -2.7467 C.2     
  34 N34            1.5396     4.3811    -3.7328 N.am    
  35 O35            0.8037     4.9724    -1.7225 O.2     
  36 C36            2.7455     5.0625    -3.5400 C.ar    
  37 C37            3.3400     5.0834    -2.2849 C.ar    
  38 C38            4.5312     5.7569    -2.0979 C.ar    
  39 C39            5.1319     6.4099    -3.1585 C.ar    
  40 C40            4.5424     6.3914    -4.4093 C.ar    
  41 C41            3.3542     5.7150    -4.6043 C.ar    
  42 H42           -0.1451     2.9455    -4.9259 H       
  43 H43           -2.1886     1.6056    -5.1933 H       
  44 H44           -3.8042     1.4327    -3.3475 H       
  45 H45           -3.7960    -0.0187    -1.1265 H       
  46 H46           -5.8707    -1.2633    -1.5450 H       
  47 H47           -5.9070     3.6883    -1.4016 H       
  48 H48          -10.3124    -0.0106    -2.3287 H       
  49 H49           -9.0010    -1.9444    -2.7632 H       
  50 H50           -7.2978    -1.9913    -2.2482 H       
  51 H51          -11.4921    -2.8161     1.1413 H       
  52 H52           -7.3951    -3.3707     2.2028 H       
  53 H53            1.3638     3.9356    -4.5764 H       
  54 H54            2.8712     4.5739    -1.4561 H       
  55 H55            4.9938     5.7738    -1.1221 H       
  56 H56            6.0634     6.9358    -3.0096 H       
  57 H57            5.0139     6.9027    -5.2355 H       
  58 H58            2.8943     5.7009    -5.5814 H       
@<TRIPOS>BOND
   1    1    2 ar
   2    1   33 1
   3    1    6 ar
   4    2    3 ar
   5    2   42 1
   6    3    4 ar
   7    3   43 1
   8    4    5 ar
   9    4   44 1
  10    5    6 ar
  11    5    8 1
  12    6    7 1
  13    7   15 1
  14    7   16 1
  15    7   17 1
  16    8    9 1
  17    9   10 ar
  18    9   14 ar
  19   10   11 ar
  20   10   45 1
  21   11   12 ar
  22   11   46 1
  23   12   13 ar
  24   12   18 1
  25   13   14 ar
  26   13   21 1
  27   14   47 1
  28   18   19 1
  29   18   23 1
  30   19   20 2
  31   19   48 1
  32   20   21 1
  33   21   22 2
  34   23   24 1
  35   23   49 1
  36   23   50 1
  37   24   25 ar
  38   24   29 ar
  39   25   26 ar
  40   25   32 1
  41   26   27 ar
  42   26   51 1
  43   27   28 ar
  44   27   31 1
  45   28   29 ar
  46   28   52 1
  47   29   30 1
  48   33   34 am
  49   33   35 2
  50   34   36 1
  51   34   53 1
  52   36   37 ar
  53   36   41 ar
  54   37   38 ar
  55   37   54 1
  56   38   39 ar
  57   38   55 1
  58   39   40 ar
  59   39   56 1
  60   40   41 ar
  61   40   57 1
  62   41   58 1

#	End of record

