#	Name: ASD01180192
#	Creating user name:	WinNT
#	Creation time:	15. 06. 2019 19:06

#	Modifying user name:	WinNT
#	Modification time:	15. 06. 2019 19:06

#	Program:	/corina/corina34_cracker 3.40 0067  02.08.2006

@<TRIPOS>MOLECULE
ASD01180192
  61   63    0    0    0
SMALL
NO_CHARGES


@<TRIPOS>ATOM
   1 C1            -0.0929     1.1673    -0.8294 C.ar    
   2 C2            -0.0555    -0.2071    -0.7120 C.ar    
   3 C3             1.1688    -0.8724    -0.7281 C.ar    
   4 C4             2.3501    -0.1442    -0.8631 C.ar    
   5 C5             2.3003     1.2316    -0.9799 C.ar    
   6 C6             1.0821     1.8855    -0.9631 C.ar    
   7 C7             1.2151    -2.3501    -0.6017 C.ar    
   8 C8             1.9541    -3.1067    -1.5089 C.ar    
   9 C9             1.9941    -4.4808    -1.3863 C.ar    
  10 C10            1.3020    -5.1071    -0.3655 C.ar    
  11 C11            0.5664    -4.3610     0.5376 C.ar    
  12 C12            0.5244    -2.9858     0.4281 C.ar    
  13 C13            1.3491    -6.6079    -0.2371 C.3     
  14 C14            2.3568    -6.9956     0.8469 C.3     
  15 N15            0.0217    -7.1086     0.1285 N.pl3   
  16 C16           -0.3604    -8.3882    -0.2372 C.ar    
  17 N17           -1.6040    -8.7889    -0.0109 N.ar    
  18 C18           -2.0116    -9.9965    -0.3418 C.ar    
  19 C19           -1.1358   -10.8992    -0.9465 C.ar    
  20 C20            0.1865   -10.5015    -1.1978 C.ar    
  21 C21            0.5660    -9.2353    -0.8432 C.ar    
  22 C22           -1.5933   -12.2524    -1.3160 C.2     
  23 N23           -2.8651   -12.6244    -1.0699 N.am    
  24 O24           -0.8229   -13.0319    -1.8425 O.2     
  25 C25           -3.3193   -13.9680    -1.4367 C.3     
  26 C26           -4.7910   -14.1316    -1.0517 C.3     
  27 C27           -5.2583   -15.5138    -1.4291 C.2     
  28 O28           -6.5249   -15.8843    -1.1839 O.3     
  29 O29           -4.4927   -16.2884    -1.9523 O.2     
  30 C30            3.7657    -6.6039     0.3970 C.3     
  31 C31            4.7558    -6.8686     1.5330 C.3     
  32 C32            4.1596    -7.4338    -0.8265 C.3     
  33 Cl33           3.8801    -0.9643    -0.8837 Cl      
  34 H34           -1.0417     1.6831    -0.8215 H       
  35 H35           -0.9736    -0.7662    -0.6073 H       
  36 H36            3.2144     1.7973    -1.0842 H       
  37 H37            1.0476     2.9610    -1.0551 H       
  38 H38            2.4944    -2.6188    -2.3067 H       
  39 H39            2.5666    -5.0682    -2.0889 H       
  40 H40            0.0273    -4.8552     1.3323 H       
  41 H41           -0.0499    -2.4042     1.1340 H       
  42 H42            1.6528    -7.0446    -1.1885 H       
  43 H43            2.1130    -6.4746     1.7727 H       
  44 H44            2.3148    -8.0719     1.0138 H       
  45 H45           -0.5894    -6.5437     0.6268 H       
  46 H46           -3.0316   -10.2908    -0.1433 H       
  47 H47            0.8874   -11.1778    -1.6644 H       
  48 H48            1.5763    -8.8986    -1.0231 H       
  49 H49           -3.4797   -12.0025    -0.6498 H       
  50 H50           -3.2072   -14.1085    -2.5118 H       
  51 H51           -2.7209   -14.7105    -0.9089 H       
  52 H52           -4.9031   -13.9911     0.0234 H       
  53 H53           -5.3894   -13.3891    -1.5795 H       
  54 H54           -6.7782   -16.7806    -1.4437 H       
  55 H55            3.7835    -5.5451     0.1389 H       
  56 H56            4.7381    -7.9274     1.7912 H       
  57 H57            5.7596    -6.5895     1.2125 H       
  58 H58            4.4752    -6.2773     2.4047 H       
  59 H59            4.0495    -8.4938    -0.5973 H       
  60 H60            3.5133    -7.1743    -1.6650 H       
  61 H61            5.1967    -7.2246    -1.0889 H       
@<TRIPOS>BOND
   1    1    2 ar
   2    1    6 ar
   3    1   34 1
   4    2    3 ar
   5    2   35 1
   6    3    4 ar
   7    3    7 1
   8    4    5 ar
   9    4   33 1
  10    5    6 ar
  11    5   36 1
  12    6   37 1
  13    7    8 ar
  14    7   12 ar
  15    8    9 ar
  16    8   38 1
  17    9   10 ar
  18    9   39 1
  19   10   11 ar
  20   10   13 1
  21   11   12 ar
  22   11   40 1
  23   12   41 1
  24   13   14 1
  25   13   15 1
  26   13   42 1
  27   14   30 1
  28   14   43 1
  29   14   44 1
  30   15   16 1
  31   15   45 1
  32   16   17 ar
  33   16   21 ar
  34   17   18 ar
  35   18   19 ar
  36   18   46 1
  37   19   20 ar
  38   19   22 1
  39   20   21 ar
  40   20   47 1
  41   21   48 1
  42   22   23 am
  43   22   24 2
  44   23   25 1
  45   23   49 1
  46   25   26 1
  47   25   50 1
  48   25   51 1
  49   26   27 1
  50   26   52 1
  51   26   53 1
  52   27   28 1
  53   27   29 2
  54   28   54 1
  55   30   31 1
  56   30   32 1
  57   30   55 1
  58   31   56 1
  59   31   57 1
  60   31   58 1
  61   32   59 1
  62   32   60 1
  63   32   61 1

#	End of record

