#	Name: ASD03092447
#	Creating user name:	WinNT
#	Creation time:	15. 06. 2019 20:32

#	Modifying user name:	WinNT
#	Modification time:	15. 06. 2019 20:32

#	Program:	/corina/corina34_cracker 3.40 0067  02.08.2006

@<TRIPOS>MOLECULE
ASD03092447
  58   61    0    0    0
SMALL
NO_CHARGES


@<TRIPOS>ATOM
   1 S1             0.7557     1.5884     0.3016 S.3     
   2 C2             1.0024    -0.1022     0.3595 C.2     
   3 N3             2.2666    -0.3754     0.3101 N.2     
   4 C4             3.0976     0.6332     0.2287 C.2     
   5 C5             2.4959     1.8489     0.2075 C.2     
   6 C6             3.1726     3.1475     0.1211 C.2     
   7 O7             4.3869     3.1979     0.0604 O.2     
   8 N8             2.4495     4.2847     0.1089 N.am    
   9 C9             4.5931     0.4587     0.1647 C.3     
  10 C10            3.1253     5.5817     0.0226 C.3     
  11 S11            0.4542     8.4823    -0.6474 S.3     
  12 C12            0.7102     8.1294     1.0055 C.2     
  13 N13            1.5882     7.1803     1.1329 N.2     
  14 C14            2.0984     6.6845     0.0266 C.2     
  15 C15            1.6242     7.2472    -1.1047 C.2     
  16 C16            2.7179     7.5019    -4.6884 C.ar    
  17 C17            2.3569     7.8804    -3.4135 C.ar    
  18 C18            2.0163     6.8903    -2.4821 C.ar    
  19 C19            2.0589     5.5519    -2.8951 C.ar    
  20 C20            2.4311     5.2643    -4.1904 C.ar    
  21 N21            2.7447     6.2285    -5.0359 N.ar    
  22 C22            2.4812     3.8294    -4.6480 C.3     
  23 C23            3.0805     8.5565    -5.7020 C.3     
  24 N24            0.0740     8.7638     2.0569 N.3     
  25 C25           -0.8590     9.7888     1.5668 C.3     
  26 C26           -1.4952    10.5050     2.7611 C.3     
  27 O27           -2.1400     9.5425     3.5996 O.3     
  28 C28           -1.2604     8.5296     4.0952 C.3     
  29 C29           -0.6219     7.7933     2.9144 C.3     
  30 C30           -2.0532     7.5369     4.9478 C.3     
  31 C31           -2.5264    11.5178     2.2593 C.3     
  32 H32            0.2149    -0.8381     0.4281 H       
  33 H33            1.4815     4.2445     0.1573 H       
  34 H34            4.9048     0.3746    -0.8764 H       
  35 H35            5.0794     1.3209     0.6210 H       
  36 H36            4.8768    -0.4455     0.7031 H       
  37 H37            3.7910     5.7020     0.8773 H       
  38 H38            3.7053     5.6285    -0.8991 H       
  39 H39            2.3375     8.9240    -3.1362 H       
  40 H40            1.8044     4.7579    -2.2087 H       
  41 H41            1.5109     3.5433    -5.0538 H       
  42 H42            3.2440     3.7203    -5.4189 H       
  43 H43            2.7250     3.1866    -3.8021 H       
  44 H44            4.1509     8.7559    -5.6518 H       
  45 H45            2.8230     8.2043    -6.7009 H       
  46 H46            2.5298     9.4722    -5.4865 H       
  47 H47           -0.3180    10.5109     0.9553 H       
  48 H48           -1.6381     9.3159     0.9689 H       
  49 H49           -0.7221    11.0227     3.3290 H       
  50 H50           -0.4805     8.9898     4.7019 H       
  51 H51           -1.3971     7.2885     2.3380 H       
  52 H52            0.0923     7.0588     3.2867 H       
  53 H53           -2.8314     7.0760     4.3395 H       
  54 H54           -1.3823     6.7652     5.3252 H       
  55 H55           -2.5107     8.0624     5.7861 H       
  56 H56           -3.2998    10.9988     1.6933 H       
  57 H57           -2.9789    12.0274     3.1100 H       
  58 H58           -2.0350    12.2489     1.6173 H       
@<TRIPOS>BOND
   1    1    2 1
   2    1    5 1
   3    2    3 2
   4    2   32 1
   5    3    4 1
   6    4    5 2
   7    4    9 1
   8    5    6 1
   9    6    7 2
  10    6    8 am
  11    8   10 1
  12    8   33 1
  13    9   34 1
  14    9   35 1
  15    9   36 1
  16   10   14 1
  17   10   37 1
  18   10   38 1
  19   11   12 1
  20   11   15 1
  21   12   13 2
  22   12   24 1
  23   13   14 1
  24   14   15 2
  25   15   18 1
  26   16   17 ar
  27   16   21 ar
  28   16   23 1
  29   17   18 ar
  30   17   39 1
  31   18   19 ar
  32   19   20 ar
  33   19   40 1
  34   20   21 ar
  35   20   22 1
  36   22   41 1
  37   22   42 1
  38   22   43 1
  39   23   44 1
  40   23   45 1
  41   23   46 1
  42   24   25 1
  43   24   29 1
  44   25   26 1
  45   25   47 1
  46   25   48 1
  47   26   27 1
  48   26   31 1
  49   26   49 1
  50   27   28 1
  51   28   29 1
  52   28   30 1
  53   28   50 1
  54   29   51 1
  55   29   52 1
  56   30   53 1
  57   30   54 1
  58   30   55 1
  59   31   56 1
  60   31   57 1
  61   31   58 1

#	End of record

