#	Name: ASD02198198
#	Creating user name:	WinNT
#	Creation time:	15. 06. 2019 20:19

#	Modifying user name:	WinNT
#	Modification time:	15. 06. 2019 20:19

#	Program:	/corina/corina34_cracker 3.40 0067  02.08.2006

@<TRIPOS>MOLECULE
ASD02198198
  47   50    0    0    0
SMALL
NO_CHARGES


@<TRIPOS>ATOM
   1 C1            -0.1724     0.9525     1.5998 C.2     
   2 C2            -0.0537    -0.3819     1.2731 C.2     
   3 C3            -1.0737    -1.3475     1.5521 C.1     
   4 S4             1.2177     1.8198     1.1283 S.3     
   5 C5             1.9789     0.3761     0.4797 C.2     
   6 C6             1.1481    -0.7058     0.6470 C.2     
   7 C7             3.2516     0.3334    -0.1227 C.2     
   8 C8             3.9951     1.5870    -0.3690 C.ar    
   9 O9             3.7400    -0.7378    -0.4410 O.2     
  10 N10            1.4731    -1.9893     0.2354 N.pl3   
  11 N11           -1.2679     1.5102     2.2180 N.pl3   
  12 N12           -1.8828    -2.1136     1.7735 N.1     
  13 C13           -1.2368     2.8483     2.6217 C.ar    
  14 C14            5.3917     1.5808    -0.3867 C.ar    
  15 C15           -2.3981     3.6117     2.5933 C.ar    
  16 C16           -2.3633     4.9343     2.9932 C.ar    
  17 C17           -1.1750     5.4976     3.4205 C.ar    
  18 C18           -0.0180     4.7406     3.4494 C.ar    
  19 C19           -0.0467     3.4166     3.0576 C.ar    
  20 Cl20          -3.8899     2.9051     2.0558 Cl      
  21 C21            6.0811     2.7508    -0.6165 C.ar    
  22 C22            5.3887     3.9369    -0.8303 C.ar    
  23 C23            3.9989     3.9470    -0.8135 C.ar    
  24 C24            3.3026     2.7797    -0.5904 C.ar    
  25 O25            6.0714     5.0882    -1.0555 O.3     
  26 C26            6.5858     5.2924    -2.2966 C.ar    
  27 C27            6.4415     4.3214    -3.2772 C.ar    
  28 C28            7.2513     6.4748    -2.5871 C.ar    
  29 C29            7.7729     6.6801    -3.8496 C.ar    
  30 C30            7.6323     5.7086    -4.8235 C.ar    
  31 C31            6.9650     4.5317    -4.5381 C.ar    
  32 H32            2.3253    -2.1592    -0.1956 H       
  33 H33            0.8483    -2.7173     0.3785 H       
  34 H34           -2.0617     0.9750     2.3738 H       
  35 H35            5.9305     0.6597    -0.2199 H       
  36 H36           -3.2649     5.5284     2.9715 H       
  37 H37           -1.1503     6.5314     3.7321 H       
  38 H38            0.9085     5.1842     3.7831 H       
  39 H39            0.8574     2.8263     3.0809 H       
  40 H40            7.1610     2.7468    -0.6303 H       
  41 H41            3.4642     4.8705    -0.9800 H       
  42 H42            2.2227     2.7883    -0.5775 H       
  43 H43            5.9206     3.4018    -3.0547 H       
  44 H44            7.3611     7.2341    -1.8269 H       
  45 H45            8.2907     7.6004    -4.0764 H       
  46 H46            8.0405     5.8712    -5.8100 H       
  47 H47            6.8565     3.7745    -5.3005 H       
@<TRIPOS>BOND
   1    1    2 2
   2    1    4 1
   3    1   11 1
   4    2    3 1
   5    2    6 1
   6    3   12 3
   7    4    5 1
   8    5    6 2
   9    5    7 1
  10    6   10 1
  11    7    8 1
  12    7    9 2
  13    8   14 ar
  14    8   24 ar
  15   10   32 1
  16   10   33 1
  17   11   13 1
  18   11   34 1
  19   13   15 ar
  20   13   19 ar
  21   14   21 ar
  22   14   35 1
  23   15   16 ar
  24   15   20 1
  25   16   17 ar
  26   16   36 1
  27   17   18 ar
  28   17   37 1
  29   18   19 ar
  30   18   38 1
  31   19   39 1
  32   21   22 ar
  33   21   40 1
  34   22   23 ar
  35   22   25 1
  36   23   24 ar
  37   23   41 1
  38   24   42 1
  39   25   26 1
  40   26   27 ar
  41   26   28 ar
  42   27   31 ar
  43   27   43 1
  44   28   29 ar
  45   28   44 1
  46   29   30 ar
  47   29   45 1
  48   30   31 ar
  49   30   46 1
  50   31   47 1

#	End of record

