#	Name: ASD02198049
#	Creating user name:	WinNT
#	Creation time:	15. 06. 2019 20:18

#	Modifying user name:	WinNT
#	Modification time:	15. 06. 2019 20:18

#	Program:	/corina/corina34_cracker 3.40 0067  02.08.2006

@<TRIPOS>MOLECULE
ASD02198049
  47   49    0    0    0
SMALL
NO_CHARGES


@<TRIPOS>ATOM
   1 C1            -0.0187     1.3475    -0.2630 C.2     
   2 C2             0.0073    -0.0299    -0.2125 C.2     
   3 C3            -1.1766    -0.8348    -0.2440 C.1     
   4 S4             1.5605     1.9877    -0.2055 S.3     
   5 C5             2.2768     0.3868    -0.1120 C.2     
   6 C6             1.2902    -0.5683    -0.1281 C.2     
   7 C7             3.6591     0.1218    -0.0322 C.2     
   8 O8             4.0525    -1.0212     0.1312 O.2     
   9 C9             4.6303     1.2272    -0.1464 C.ar    
  10 N10            1.5445    -1.9303    -0.0656 N.pl3   
  11 N11           -1.1643     2.1035    -0.3535 N.pl3   
  12 N12           -2.1159    -1.4734    -0.2690 N.1     
  13 C13           -1.0756     3.5651    -0.4006 C.3     
  14 C14            5.2811     1.7093     0.9920 C.ar    
  15 C15            6.1867     2.7402     0.8817 C.ar    
  16 C16            6.4569     3.3049    -0.3604 C.ar    
  17 C17            5.8161     2.8335    -1.4970 C.ar    
  18 C18            4.9077     1.7940    -1.3990 C.ar    
  19 O19            4.2799     1.3315    -2.5097 O.3     
  20 C20            4.6042     1.9643    -3.7492 C.3     
  21 O21            7.3509     4.3215    -0.4608 O.3     
  22 C22            7.9745     4.7589     0.7483 C.3     
  23 C23           -2.3157     4.1461    -1.1024 C.3     
  24 C24           -1.0693     4.1405     1.0307 C.3     
  25 C25           -1.8965     5.4453     0.9192 C.3     
  26 C26           -3.0196     5.0542    -0.0731 C.3     
  27 H27            2.4581    -2.2509    -0.0070 H       
  28 H28            0.8087    -2.5622    -0.0806 H       
  29 H29           -2.0309     1.6689    -0.3862 H       
  30 H30           -0.1716     3.8672    -0.9293 H       
  31 H31            5.0735     1.2736     1.9582 H       
  32 H32            6.6887     3.1121     1.7626 H       
  33 H33            6.0290     3.2754    -2.4592 H       
  34 H34            4.3556     3.0240    -3.6921 H       
  35 H35            5.6702     1.8513    -3.9469 H       
  36 H36            4.0342     1.5002    -4.5541 H       
  37 H37            7.2119     5.1072     1.4449 H       
  38 H38            8.5230     3.9296     1.1948 H       
  39 H39            8.6641     5.5736     0.5273 H       
  40 H40           -2.0133     4.7308    -1.9712 H       
  41 H41           -2.9834     3.3406    -1.4080 H       
  42 H42           -1.5443     3.4457     1.7233 H       
  43 H43           -0.0503     4.3608     1.3488 H       
  44 H44           -2.3150     5.7212     1.8871 H       
  45 H45           -1.2885     6.2547     0.5151 H       
  46 H46           -3.4239     5.9414    -0.5606 H       
  47 H47           -3.8096     4.5070     0.4412 H       
@<TRIPOS>BOND
   1    1    2 2
   2    1    4 1
   3    1   11 1
   4    2    3 1
   5    2    6 1
   6    3   12 3
   7    4    5 1
   8    5    6 2
   9    5    7 1
  10    6   10 1
  11    7    8 2
  12    7    9 1
  13    9   14 ar
  14    9   18 ar
  15   10   27 1
  16   10   28 1
  17   11   13 1
  18   11   29 1
  19   13   23 1
  20   13   24 1
  21   13   30 1
  22   14   15 ar
  23   14   31 1
  24   15   16 ar
  25   15   32 1
  26   16   17 ar
  27   16   21 1
  28   17   18 ar
  29   17   33 1
  30   18   19 1
  31   19   20 1
  32   20   34 1
  33   20   35 1
  34   20   36 1
  35   21   22 1
  36   22   37 1
  37   22   38 1
  38   22   39 1
  39   23   26 1
  40   23   40 1
  41   23   41 1
  42   24   25 1
  43   24   42 1
  44   24   43 1
  45   25   26 1
  46   25   44 1
  47   25   45 1
  48   26   46 1
  49   26   47 1

#	End of record

