#	Name: ASD01120271
#	Creating user name:	WinNT
#	Creation time:	15. 06. 2019 18:59

#	Modifying user name:	WinNT
#	Modification time:	15. 06. 2019 18:59

#	Program:	/corina/corina34_cracker 3.40 0067  02.08.2006

@<TRIPOS>MOLECULE
ASD01120271
  44   46    0    0    0
SMALL
NO_CHARGES


@<TRIPOS>ATOM
   1 C1             0.4669     2.0804    -0.0119 C.3     
   2 C2             0.2661     0.5645    -0.0647 C.3     
   3 N3             0.8693    -0.0495     1.1208 N.pl3   
   4 C4             0.2630    -0.1805     2.3556 C.2     
   5 C5             1.1219    -0.7978     3.2100 C.2     
   6 C6             2.3153    -1.0702     2.4993 C.ar    
   7 C7             2.1293    -0.5954     1.1861 C.ar    
   8 C8             3.1567    -0.7339     0.2567 C.ar    
   9 C9             4.3400    -1.3313     0.6285 C.ar    
  10 C10            4.5208    -1.7992     1.9242 C.ar    
  11 C11            3.5274    -1.6785     2.8516 C.ar    
  12 N12            2.9770    -0.2407    -1.1273 N.pl3   
  13 O13            3.2900    -0.9452    -2.0703 O.2     
  14 O14            2.5161     0.8696    -1.3232 O.2     
  15 C15           -1.0923     0.2749     2.6917 C.2     
  16 O16           -1.5287     0.1085     3.8142 O.2     
  17 O17           -1.8526     0.8778     1.7551 O.3     
  18 C18           -3.1316     1.1812     2.1004 C.ar    
  19 C19           -3.3888     2.2649     2.9282 C.ar    
  20 C20           -4.6890     2.5746     3.2801 C.ar    
  21 C21           -5.7362     1.8066     2.8096 C.ar    
  22 C22           -5.4847     0.7202     1.9810 C.ar    
  23 C23           -4.1806     0.4117     1.6212 C.ar    
  24 N24           -6.5455    -0.0580     1.5047 N.am    
  25 C25           -7.7229     0.5223     1.1993 C.2     
  26 O26           -7.8893     1.7049     1.4113 O.2     
  27 C27           -8.8328    -0.2981     0.5942 C.3     
  28 H28            1.5332     2.3051     0.0109 H       
  29 H29            0.0181     2.5373    -0.8940 H       
  30 H30           -0.0077     2.4788     0.8848 H       
  31 H31           -0.8002     0.3398    -0.0876 H       
  32 H32            0.7407     0.1662    -0.9615 H       
  33 H33            0.9283    -1.0372     4.2452 H       
  34 H34            5.1354    -1.4376    -0.0943 H       
  35 H35            5.4553    -2.2657     2.1990 H       
  36 H36            3.6772    -2.0452     3.8563 H       
  37 H37           -2.5720     2.8668     3.2981 H       
  38 H38           -4.8865     3.4185     3.9244 H       
  39 H39           -6.7513     2.0506     3.0864 H       
  40 H40           -3.9823    -0.4320     0.9768 H       
  41 H41           -6.4335    -1.0152     1.3944 H       
  42 H42           -8.5007    -1.3299     0.4791 H       
  43 H43           -9.7047    -0.2678     1.2477 H       
  44 H44           -9.0958     0.1100    -0.3817 H       
@<TRIPOS>BOND
   1    1    2 1
   2    1   28 1
   3    1   29 1
   4    1   30 1
   5    2    3 1
   6    2   31 1
   7    2   32 1
   8    3    4 1
   9    3    7 1
  10    4    5 2
  11    4   15 1
  12    5    6 1
  13    5   33 1
  14    6    7 ar
  15    6   11 ar
  16    7    8 ar
  17    8    9 ar
  18    8   12 1
  19    9   10 ar
  20    9   34 1
  21   10   11 ar
  22   10   35 1
  23   11   36 1
  24   12   13 2
  25   12   14 2
  26   15   16 2
  27   15   17 1
  28   17   18 1
  29   18   19 ar
  30   18   23 ar
  31   19   20 ar
  32   19   37 1
  33   20   21 ar
  34   20   38 1
  35   21   22 ar
  36   21   39 1
  37   22   23 ar
  38   22   24 1
  39   23   40 1
  40   24   25 am
  41   24   41 1
  42   25   26 2
  43   25   27 1
  44   27   42 1
  45   27   43 1
  46   27   44 1

#	End of record

