#	Name: ASD01120183
#	Creating user name:	WinNT
#	Creation time:	15. 06. 2019 18:59

#	Modifying user name:	WinNT
#	Modification time:	15. 06. 2019 18:59

#	Program:	/corina/corina34_cracker 3.40 0067  02.08.2006

@<TRIPOS>MOLECULE
ASD01120183
  26   28    0    0    0
SMALL
NO_CHARGES


@<TRIPOS>ATOM
   1 C1            -0.0167     1.3828     0.0096 C.ar    
   2 C2             0.0021    -0.0041     0.0020 C.ar    
   3 C3            -1.1785    -0.7198     0.0090 C.ar    
   4 C4            -2.3914    -0.0514     0.0242 C.ar    
   5 C5            -2.4156     1.3515     0.0324 C.ar    
   6 C6            -1.2159     2.0636     0.0305 C.ar    
   7 O7            -3.6828    -0.4556     0.0344 O.3     
   8 C8            -4.4648     0.6381     0.0482 C.2     
   9 N9            -3.7266     1.7186     0.0472 N.2     
  10 Cl10           1.4775     2.2664     0.0001 Cl      
  11 N11           -5.8411     0.6234     0.0614 N.am    
  12 S12           -6.6843     2.0485     0.0777 S.o2    
  13 O13           -8.0618     1.7001     0.0544 O.2     
  14 O14           -6.1020     2.8477     1.0983 O.2     
  15 C15           -6.3526     2.8683    -1.4462 C.2     
  16 C16           -7.0624     2.7257    -2.5666 C.2     
  17 C17           -6.6125     3.4731    -3.6412 C.2     
  18 C18           -5.5373     4.2228    -3.3937 C.2     
  19 S19           -5.0393     4.0057    -1.7208 S.3     
  20 H20            0.9466    -0.5276    -0.0098 H       
  21 H21           -1.1563    -1.7995     0.0023 H       
  22 H22           -1.2263     3.1436     0.0371 H       
  23 H23           -6.3171    -0.2218     0.0612 H       
  24 H24           -7.9227     2.0759    -2.6304 H       
  25 H25           -7.0952     3.4508    -4.6071 H       
  26 H26           -5.0494     4.8673    -4.1099 H       
@<TRIPOS>BOND
   1    1    2 ar
   2    1   10 1
   3    1    6 ar
   4    2    3 ar
   5    2   20 1
   6    3    4 ar
   7    3   21 1
   8    4    5 ar
   9    4    7 1
  10    5    6 ar
  11    5    9 1
  12    6   22 1
  13    7    8 1
  14    8    9 2
  15    8   11 1
  16   11   12 am
  17   11   23 1
  18   12   13 2
  19   12   14 2
  20   12   15 1
  21   15   16 2
  22   15   19 1
  23   16   17 1
  24   16   24 1
  25   17   18 2
  26   17   25 1
  27   18   19 1
  28   18   26 1

#	End of record

