#	Name: ASD01120012
#	Creating user name:	WinNT
#	Creation time:	15. 06. 2019 18:58

#	Modifying user name:	WinNT
#	Modification time:	15. 06. 2019 18:58

#	Program:	/corina/corina34_cracker 3.40 0067  02.08.2006

@<TRIPOS>MOLECULE
ASD01120012
  58   62    0    0    0
SMALL
NO_CHARGES


@<TRIPOS>ATOM
   1 C1            -0.0156     1.4019    -0.0393 C.ar    
   2 C2             0.0047     0.0004    -0.0616 C.ar    
   3 C3            -1.1691    -0.7203    -0.0523 C.ar    
   4 C4            -2.3942    -0.0432    -0.0202 C.ar    
   5 C5            -2.4067     1.3736     0.0022 C.ar    
   6 C6            -1.1995     2.0824    -0.0027 C.ar    
   7 N7            -3.5656    -0.6986    -0.0103 N.ar    
   8 C8            -4.6977    -0.0367     0.0195 C.ar    
   9 N9            -4.7582     1.2853     0.0413 N.ar    
  10 C10           -3.6602     2.0298     0.0341 C.ar    
  11 N11           -3.7382     3.4079     0.0575 N.pl3   
  12 C12           -4.9822     4.0392    -0.0323 C.ar    
  13 C13           -5.2106     5.2227     0.6534 C.ar    
  14 C14           -6.4516     5.8478     0.5609 C.ar    
  15 C15           -7.4571     5.2805    -0.2202 C.ar    
  16 C16           -7.2220     4.1016    -0.8996 C.ar    
  17 C17           -5.9891     3.4837    -0.8134 C.ar    
  18 C18           -6.7030     7.1139     1.2921 C.2     
  19 O19            1.1564     2.0915    -0.0487 O.3     
  20 O20            1.1947    -0.6540    -0.0932 O.3     
  21 C21           -7.8875     7.7567     1.2342 C.2     
  22 S22           -7.7770     9.2045     2.2328 S.3     
  23 C23           -6.1129     8.7963     2.6401 C.2     
  24 N24           -5.7844     7.6860     2.0489 N.2     
  25 C25            1.0701     3.5176    -0.0249 C.3     
  26 C26            2.4790     4.1141    -0.0397 C.3     
  27 C27            1.1494    -2.0821    -0.1148 C.3     
  28 C28            2.5748    -2.6371    -0.1490 C.3     
  29 C29           -5.2293     9.5893     3.5216 C.ar    
  30 C30           -5.6974    10.7663     4.1074 C.ar    
  31 C31           -4.8681    11.5014     4.9292 C.ar    
  32 C32           -3.5749    11.0742     5.1727 C.ar    
  33 C33           -3.1048     9.9083     4.5950 C.ar    
  34 C34           -3.9258     9.1610     3.7759 C.ar    
  35 H35           -1.1446    -1.7999    -0.0700 H       
  36 H36           -1.2042     3.1623     0.0144 H       
  37 H37           -5.6218    -0.5955     0.0263 H       
  38 H38           -2.9298     3.9382     0.1362 H       
  39 H39           -4.4285     5.6582     1.2576 H       
  40 H40           -8.4205     5.7630    -0.2938 H       
  41 H41           -8.0026     3.6636    -1.5039 H       
  42 H42           -5.8102     2.5619    -1.3470 H       
  43 H43           -8.7538     7.4390     0.6729 H       
  44 H44            0.5201     3.8630    -0.9002 H       
  45 H45            0.5507     3.8352     0.8792 H       
  46 H46            3.0290     3.7687     0.8356 H       
  47 H47            2.9985     3.7966    -0.9439 H       
  48 H48            2.4132     5.2020    -0.0216 H       
  49 H49            0.6404    -2.4430     0.7789 H       
  50 H50            0.6084    -2.4152    -1.0005 H       
  51 H51            3.1158    -2.3041     0.7367 H       
  52 H52            2.5402    -3.7265    -0.1655 H       
  53 H53            3.0838    -2.2763    -1.0428 H       
  54 H54           -6.7064    11.1012     3.9175 H       
  55 H55           -5.2291    12.4125     5.3831 H       
  56 H56           -2.9294    11.6536     5.8162 H       
  57 H57           -2.0943     9.5802     4.7891 H       
  58 H58           -3.5577     8.2510     3.3256 H       
@<TRIPOS>BOND
   1    1    2 ar
   2    1   19 1
   3    1    6 ar
   4    2    3 ar
   5    2   20 1
   6    3    4 ar
   7    3   35 1
   8    4    5 ar
   9    4    7 ar
  10    5    6 ar
  11    5   10 ar
  12    6   36 1
  13    7    8 ar
  14    8    9 ar
  15    8   37 1
  16    9   10 ar
  17   10   11 1
  18   11   12 1
  19   11   38 1
  20   12   13 ar
  21   12   17 ar
  22   13   14 ar
  23   13   39 1
  24   14   15 ar
  25   14   18 1
  26   15   16 ar
  27   15   40 1
  28   16   17 ar
  29   16   41 1
  30   17   42 1
  31   18   21 2
  32   18   24 1
  33   19   25 1
  34   20   27 1
  35   21   22 1
  36   21   43 1
  37   22   23 1
  38   23   24 2
  39   23   29 1
  40   25   26 1
  41   25   44 1
  42   25   45 1
  43   26   46 1
  44   26   47 1
  45   26   48 1
  46   27   28 1
  47   27   49 1
  48   27   50 1
  49   28   51 1
  50   28   52 1
  51   28   53 1
  52   29   30 ar
  53   29   34 ar
  54   30   31 ar
  55   30   54 1
  56   31   32 ar
  57   31   55 1
  58   32   33 ar
  59   32   56 1
  60   33   34 ar
  61   33   57 1
  62   34   58 1

#	End of record

