#	Name: ASD03330926
#	Creating user name:	WinNT
#	Creation time:	15. 06. 2019 20:38

#	Modifying user name:	WinNT
#	Modification time:	15. 06. 2019 20:38

#	Program:	/corina/corina34_cracker 3.40 0067  02.08.2006

@<TRIPOS>MOLECULE
ASD03330926
  65   68    0    0    0
SMALL
NO_CHARGES


@<TRIPOS>ATOM
   1 N1             0.1544     0.9729    -0.0299 N.pl3   
   2 C2             0.0385    -0.3643     0.1893 C.2     
   3 C3             1.1617    -1.2910     0.5753 C.3     
   4 N4             1.9323    -0.6841     1.6718 N.3     
   5 C5             3.0073     0.1664     1.1571 C.3     
   6 C6             2.5901     0.8463    -0.1437 C.3     
   7 C7             1.3852     1.7563     0.1102 C.3     
   8 C8            -1.0782     1.4367    -0.3872 C.2     
   9 N9            -1.9240     0.4331    -0.3720 N.2     
  10 C10           -1.2665    -0.6930    -0.0171 C.2     
  11 C11           -1.8562    -2.0362     0.1208 C.2     
  12 O12           -1.1574    -2.9766     0.4474 O.2     
  13 N13           -3.1700    -2.2229    -0.1150 N.am    
  14 C14           -1.4063     2.8364    -0.7332 C.ar    
  15 C15           -2.1815     3.1165    -1.8618 C.ar    
  16 C16           -2.4855     4.4262    -2.1801 C.ar    
  17 C17           -2.0230     5.4603    -1.3834 C.ar    
  18 C18           -1.2523     5.1876    -0.2618 C.ar    
  19 C19           -0.9478     3.8819     0.0691 C.ar    
  20 F20           -0.8036     6.2011     0.5107 F       
  21 F21           -2.3227     6.7392    -1.6993 F       
  22 F22           -2.6325     2.1086    -2.6402 F       
  23 C23           -4.9897    -3.6563    -0.8383 C.2     
  24 C24           -3.7563    -3.5584     0.0221 C.3     
  25 C25           -4.1341    -3.8018     1.4847 C.3     
  26 C26           -5.2023    -2.7924     1.9102 C.3     
  27 O27           -5.6251    -2.6578    -1.1032 O.2     
  28 N28           -5.3866    -4.8534    -1.3134 N.am    
  29 C29           -6.6431    -4.9659    -2.0583 C.3     
  30 C30           -4.6832    -5.2214     1.6401 C.3     
  31 C31           -2.8948    -3.6349     2.3661 C.3     
  32 C32            2.4340    -1.6584     2.5268 C.ar    
  33 C33            3.2329    -2.6834     2.0252 C.ar    
  34 N34            2.1578    -1.6114     3.8236 N.ar    
  35 N35            3.7078    -3.6064     2.8397 N.ar    
  36 C36            3.4267    -3.5596     4.1309 C.ar    
  37 C37            2.6378    -2.5407     4.6343 C.ar    
  38 Cl38           2.2775    -2.4808     6.3315 Cl      
  39 H39            0.7501    -2.2453     0.9039 H       
  40 H40            1.8137    -1.4506    -0.2835 H       
  41 H41            3.2471     0.9284     1.8986 H       
  42 H42            3.8910    -0.4449     0.9742 H       
  43 H43            3.4202     1.4418    -0.5238 H       
  44 H44            2.3227     0.0879    -0.8795 H       
  45 H45            1.3837     2.5700    -0.6151 H       
  46 H46            1.4438     2.1657     1.1187 H       
  47 H47           -3.7273    -1.4729    -0.3755 H       
  48 H48           -3.0845     4.6440    -3.0520 H       
  49 H49           -0.3518     3.6706     0.9446 H       
  50 H50           -3.0314    -4.3078    -0.2954 H       
  51 H51           -6.0853    -2.9113     1.2823 H       
  52 H52           -5.4715    -2.9658     2.9522 H       
  53 H53           -4.8112    -1.7811     1.7995 H       
  54 H54           -4.8404    -5.6406    -1.1621 H       
  55 H55           -7.4707    -4.6463    -1.4251 H       
  56 H56           -6.5980    -4.3327    -2.9444 H       
  57 H57           -6.7953    -6.0023    -2.3597 H       
  58 H58           -3.9011    -5.9417     1.3999 H       
  59 H59           -5.0134    -5.3727     2.6678 H       
  60 H60           -5.5261    -5.3611     0.9633 H       
  61 H61           -2.5036    -2.6235     2.2554 H       
  62 H62           -3.1639    -3.8083     3.4080 H       
  63 H63           -2.1338    -4.3540     2.0629 H       
  64 H64            3.4629    -2.7228     0.9707 H       
  65 H65            3.8167    -4.3169     4.7949 H       
@<TRIPOS>BOND
   1    1    2 1
   2    1    7 1
   3    1    8 1
   4    2    3 1
   5    2   10 2
   6    3    4 1
   7    3   39 1
   8    3   40 1
   9    4    5 1
  10    4   32 1
  11    5    6 1
  12    5   41 1
  13    5   42 1
  14    6    7 1
  15    6   43 1
  16    6   44 1
  17    7   45 1
  18    7   46 1
  19    8    9 2
  20    8   14 1
  21    9   10 1
  22   10   11 1
  23   11   12 2
  24   11   13 am
  25   13   24 1
  26   13   47 1
  27   14   15 ar
  28   14   19 ar
  29   15   16 ar
  30   15   22 1
  31   16   17 ar
  32   16   48 1
  33   17   18 ar
  34   17   21 1
  35   18   19 ar
  36   18   20 1
  37   19   49 1
  38   23   27 2
  39   23   28 am
  40   23   24 1
  41   24   25 1
  42   24   50 1
  43   25   26 1
  44   25   30 1
  45   25   31 1
  46   26   51 1
  47   26   52 1
  48   26   53 1
  49   28   29 1
  50   28   54 1
  51   29   55 1
  52   29   56 1
  53   29   57 1
  54   30   58 1
  55   30   59 1
  56   30   60 1
  57   31   61 1
  58   31   62 1
  59   31   63 1
  60   32   33 ar
  61   32   34 ar
  62   33   35 ar
  63   33   64 1
  64   34   37 ar
  65   35   36 ar
  66   36   37 ar
  67   36   65 1
  68   37   38 1

#	End of record

