#	Name: ASD07931902
#	Creating user name:	WinNT
#	Creation time:	15. 06. 2019 21:13

#	Modifying user name:	WinNT
#	Modification time:	15. 06. 2019 21:13

#	Program:	/corina/corina34_cracker 3.40 0067  02.08.2006

@<TRIPOS>MOLECULE
ASD07931902
  30   31    0    0    0
SMALL
NO_CHARGES


@<TRIPOS>ATOM
   1 C1            -0.0187     1.5258     0.0104 C.3     
   2 C2             0.0021    -0.0041     0.0020 C.3     
   3 C3             0.7182    -0.4975    -1.2568 C.3     
   4 C4             2.1536     0.0321    -1.2676 C.3     
   5 C5             2.1328     1.5619    -1.2592 C.3     
   6 C6             1.4167     2.0553    -0.0004 C.3     
   7 C7            -0.7475     2.0250    -1.2105 C.2     
   8 O8            -1.7376     2.7052    -1.0866 O.2     
   9 C9             0.7387    -2.0043    -1.2651 C.ar    
  10 C10            0.1395    -2.6978    -2.3001 C.ar    
  11 C11            0.1579    -4.0798    -2.3082 C.ar    
  12 C12            0.7761    -4.7691    -1.2803 C.ar    
  13 C13            1.3756    -4.0746    -0.2447 C.ar    
  14 C14            1.3614    -2.6925    -0.2406 C.ar    
  15 Cl15           0.7992    -6.5050    -1.2895 Cl      
  16 H16           -0.5289     1.8773     0.9072 H       
  17 H17            0.5293    -0.3651     0.8851 H       
  18 H18           -1.0205    -0.3814     0.0098 H       
  19 H19            0.1910    -0.1364    -2.1398 H       
  20 H20            2.6808    -0.3290    -0.3846 H       
  21 H21            2.6638    -0.3194    -2.1644 H       
  22 H22            3.1554     1.9392    -1.2670 H       
  23 H23            1.6057     1.9230    -2.1423 H       
  24 H24            1.4019     3.1452     0.0056 H       
  25 H25            1.9439     1.6943     0.8826 H       
  26 H26           -0.3844     1.7744    -2.1962 H       
  27 H27           -0.3433    -2.1595    -3.1023 H       
  28 H28           -0.3105    -4.6214    -3.1167 H       
  29 H29            1.8583    -4.6122     0.5580 H       
  30 H30            1.8332    -2.1502     0.5655 H       
@<TRIPOS>BOND
   1    1    2 1
   2    1    6 1
   3    1    7 1
   4    1   16 1
   5    2    3 1
   6    2   17 1
   7    2   18 1
   8    3    4 1
   9    3    9 1
  10    3   19 1
  11    4    5 1
  12    4   20 1
  13    4   21 1
  14    5    6 1
  15    5   22 1
  16    5   23 1
  17    6   24 1
  18    6   25 1
  19    7    8 2
  20    7   26 1
  21    9   10 ar
  22    9   14 ar
  23   10   11 ar
  24   10   27 1
  25   11   12 ar
  26   11   28 1
  27   12   13 ar
  28   12   15 1
  29   13   14 ar
  30   13   29 1
  31   14   30 1

#	End of record

