#	Name: ASD08150756
#	Creating user name:	WinNT
#	Creation time:	15. 06. 2019 21:16

#	Modifying user name:	WinNT
#	Modification time:	15. 06. 2019 21:16

#	Program:	/corina/corina34_cracker 3.40 0067  02.08.2006

@<TRIPOS>MOLECULE
ASD08150756
  54   57    0    0    0
SMALL
NO_CHARGES


@<TRIPOS>ATOM
   1 C1            -0.0158     1.3166     0.0093 C.2     
   2 N2             0.0021    -0.0041     0.0020 N.2     
   3 C3             1.1389    -0.6846    -0.0125 C.2     
   4 C4             2.3424     0.0129    -0.0203 C.2     
   5 C5             2.3160     1.4195    -0.0125 C.2     
   6 N6             1.1170     2.0723     0.0025 N.am    
   7 S7            -1.3640     2.4676     0.0210 S.3     
   8 C8             0.9184     3.4310     0.0118 C.2     
   9 C9            -0.3177     3.8979     0.0246 C.2     
  10 O10            3.3591     2.0525    -0.0191 O.2     
  11 C11            1.1282    -2.1916    -0.0200 C.3     
  12 C12            0.5278    -2.7039     1.2907 C.3     
  13 N13            0.3215    -2.6686    -1.1460 N.pl3   
  14 N14           -1.2276    -3.8952    -3.5011 N.2     
  15 C15           -1.5785    -4.7659    -4.4024 C.2     
  16 N16           -0.8034    -5.8825    -4.2979 N.pl3   
  17 C17            0.0763    -5.6773    -3.2653 C.ar    
  18 N18            1.0495    -6.3889    -2.7061 N.ar    
  19 C19            1.7397    -5.9038    -1.6955 C.ar    
  20 N20            1.5087    -4.7064    -1.1891 N.ar    
  21 C21            0.5558    -3.9224    -1.6830 C.ar    
  22 C22           -0.2081    -4.3961    -2.7629 C.ar    
  23 C23            2.0926     4.3755     0.0063 C.3     
  24 C24            3.6331    -0.7148    -0.0361 C.ar    
  25 C25            4.4825    -0.6087    -1.1369 C.ar    
  26 C26            5.6832    -1.2882    -1.1469 C.ar    
  27 C27            6.0455    -2.0750    -0.0656 C.ar    
  28 C28            5.2048    -2.1840     1.0302 C.ar    
  29 C29            4.0048    -1.5034     1.0523 C.ar    
  30 F30            7.2222    -2.7385    -0.0800 F       
  31 H31           -0.6255     4.9331     0.0312 H       
  32 H32            2.1484    -2.5617    -0.1214 H       
  33 H33           -0.4925    -2.3338     1.3921 H       
  34 H34            0.5200    -3.7938     1.2853 H       
  35 H35            1.1280    -2.3489     2.1285 H       
  36 H36           -0.3768    -2.1057    -1.5152 H       
  37 H37           -2.3677    -4.6250    -5.1261 H       
  38 H38           -0.8632    -6.6766    -4.8517 H       
  39 H39            2.5240    -6.5081    -1.2641 H       
  40 H40            2.3664     4.6089    -1.0227 H       
  41 H41            1.8226     5.2939     0.5276 H       
  42 H42            2.9382     3.9070     0.5099 H       
  43 H43            4.2008     0.0041    -1.9804 H       
  44 H44            6.3416    -1.2070    -1.9992 H       
  45 H45            5.4912    -2.7991     1.8704 H       
  46 H46            3.3523    -1.5851     1.9090 H       
  47 C47           13.3937    12.2821     8.2753 C.2     
  48 C48           13.4141    10.7753     8.2670 C.3     
  49 O49           14.4317    12.9004     8.2687 O.2     
  50 O50           12.2222    12.9374     8.2844 O.3     
  51 F51           14.7393    10.3270     8.2520 F       
  52 F52           12.7720    10.2939     9.4129 F       
  53 F53           12.7501    10.3062     7.1285 F       
  54 H54           12.2598    13.9037     8.2895 H       
@<TRIPOS>BOND
   1    1    2 2
   2    1    6 1
   3    1    7 1
   4    2    3 1
   5    3    4 2
   6    3   11 1
   7    4    5 1
   8    4   24 1
   9    5    6 am
  10    5   10 2
  11    6    8 1
  12    7    9 1
  13    8    9 2
  14    8   23 1
  15    9   31 1
  16   11   12 1
  17   11   13 1
  18   11   32 1
  19   12   33 1
  20   12   34 1
  21   12   35 1
  22   13   21 1
  23   13   36 1
  24   14   15 2
  25   14   22 1
  26   15   16 1
  27   15   37 1
  28   16   17 1
  29   16   38 1
  30   17   18 ar
  31   17   22 ar
  32   18   19 ar
  33   19   20 ar
  34   19   39 1
  35   20   21 ar
  36   21   22 ar
  37   23   40 1
  38   23   41 1
  39   23   42 1
  40   24   25 ar
  41   24   29 ar
  42   25   26 ar
  43   25   43 1
  44   26   27 ar
  45   26   44 1
  46   27   28 ar
  47   27   30 1
  48   28   29 ar
  49   28   45 1
  50   29   46 1
  51   47   48 1
  52   47   49 2
  53   47   50 1
  54   48   51 1
  55   48   52 1
  56   48   53 1
  57   50   54 1

#	End of record

