#	Name: ASD01911141
#	Creating user name:	WinNT
#	Creation time:	15. 06. 2019 19:57

#	Modifying user name:	WinNT
#	Modification time:	15. 06. 2019 19:57

#	Program:	/corina/corina34_cracker 3.40 0067  02.08.2006

@<TRIPOS>MOLECULE
ASD01911141
  28   29    0    0    0
SMALL
NO_CHARGES


@<TRIPOS>ATOM
   1 C1            -0.0167     1.3826     0.0096 C.ar    
   2 C2             0.0021    -0.0041     0.0020 C.ar    
   3 C3             1.2087    -0.6874    -0.0132 C.ar    
   4 C4             2.3980     0.0082    -0.0207 C.ar    
   5 C5             2.3864     1.4076    -0.0131 C.ar    
   6 C6             1.1652     2.0908     0.0022 C.ar    
   7 C7             3.6513     2.1565    -0.0207 C.2     
   8 N8             3.6371     3.4640    -0.0135 N.2     
   9 N9             4.7471     4.1212    -0.0201 N.2     
  10 C10            4.7328     5.4286    -0.0130 C.2     
  11 C11            5.9977     6.1775    -0.0205 C.ar    
  12 C12            5.9861     7.5769    -0.0129 C.ar    
  13 C13            7.2190     5.4943    -0.0295 C.ar    
  14 C14            8.4009     6.2025    -0.0361 C.ar    
  15 C15            8.3821     7.5892    -0.0338 C.ar    
  16 C16            7.1754     8.2726    -0.0196 C.ar    
  17 F17           -1.1604    -0.6923     0.0098 F       
  18 F18            9.5446     8.2775    -0.0403 F       
  19 H19           -0.9600     1.9086     0.0170 H       
  20 H20            1.2162    -1.7674    -0.0187 H       
  21 H21            3.3370    -0.5252    -0.0322 H       
  22 H22            1.1491     3.1707     0.0078 H       
  23 H23            4.5924     1.6268    -0.0321 H       
  24 H24            3.7917     5.9583    -0.0015 H       
  25 H25            5.0471     8.1103    -0.0022 H       
  26 H26            7.2351     4.4144    -0.0309 H       
  27 H27            9.3442     5.6766    -0.0427 H       
  28 H28            7.1679     9.3526    -0.0178 H       
@<TRIPOS>BOND
   1    1    2 ar
   2    1    6 ar
   3    1   19 1
   4    2    3 ar
   5    2   17 1
   6    3    4 ar
   7    3   20 1
   8    4    5 ar
   9    4   21 1
  10    5    6 ar
  11    5    7 1
  12    6   22 1
  13    7    8 2
  14    7   23 1
  15    8    9 1
  16    9   10 2
  17   10   11 1
  18   10   24 1
  19   11   12 ar
  20   11   13 ar
  21   12   16 ar
  22   12   25 1
  23   13   14 ar
  24   13   26 1
  25   14   15 ar
  26   14   27 1
  27   15   16 ar
  28   15   18 1
  29   16   28 1

#	End of record

