#	Name: ASD01100024
#	Creating user name:	WinNT
#	Creation time:	15. 06. 2019 18:58

#	Modifying user name:	WinNT
#	Modification time:	15. 06. 2019 18:58

#	Program:	/corina/corina34_cracker 3.40 0067  02.08.2006

@<TRIPOS>MOLECULE
ASD01100024
  36   37    0    0    0
SMALL
NO_CHARGES


@<TRIPOS>ATOM
   1 C1             0.6112     0.5351    -1.3089 C.ar    
   2 C2             0.8653    -0.8227    -1.2312 C.ar    
   3 C3             2.0840    -1.2717    -0.7545 C.ar    
   4 C4             3.0469    -0.3637    -0.3561 C.ar    
   5 C5             2.7924     0.9928    -0.4340 C.ar    
   6 C6             1.5749     1.4421    -0.9103 C.ar    
   7 C7             3.8426     1.9823     0.0010 C.3     
   8 C8             3.2928     2.8410     1.1417 C.3     
   9 C9             2.9904     1.9517     2.3495 C.3     
  10 C10            4.3304     3.8956     1.5320 C.3     
  11 Cl11          -0.3449    -1.9626    -1.7313 Cl      
  12 C12            4.2109     2.8676    -1.1616 C.2     
  13 N13            5.2244     3.7481    -1.0436 N.am    
  14 O14            3.5953     2.7877    -2.2035 O.2     
  15 C15            5.4956     4.6416    -2.0787 C.ar    
  16 C16            4.5429     4.8753    -3.0661 C.ar    
  17 N17            4.8033     5.7220    -4.0445 N.ar    
  18 C18            5.9674     6.3476    -4.0872 C.ar    
  19 C19            6.9160     6.1177    -3.1079 C.ar    
  20 N20            6.6600     5.2752    -2.1220 N.ar    
  21 H21           -0.3383     0.8862    -1.6852 H       
  22 H22            2.2827    -2.3315    -0.6933 H       
  23 H23            3.9981    -0.7141     0.0164 H       
  24 H24            1.3767     2.5020    -0.9709 H       
  25 H25            4.7273     1.4459     0.3439 H       
  26 H26            2.3774     3.3350     0.8160 H       
  27 H27            3.9058     1.4577     2.6752 H       
  28 H28            2.5988     2.5635     3.1622 H       
  29 H29            2.2512     1.2004     2.0715 H       
  30 H30            4.5761     4.5032     0.6610 H       
  31 H31            3.9230     4.5332     2.3166 H       
  32 H32            5.2312     3.4017     1.8962 H       
  33 H33            5.7652     3.7600    -0.2384 H       
  34 H34            3.5921     4.3644    -3.0319 H       
  35 H35            6.1779     7.0396    -4.8892 H       
  36 H36            7.8657     6.6305    -3.1461 H       
@<TRIPOS>BOND
   1    1    2 ar
   2    1    6 ar
   3    1   21 1
   4    2    3 ar
   5    2   11 1
   6    3    4 ar
   7    3   22 1
   8    4    5 ar
   9    4   23 1
  10    5    6 ar
  11    5    7 1
  12    6   24 1
  13    7    8 1
  14    7   12 1
  15    7   25 1
  16    8    9 1
  17    8   10 1
  18    8   26 1
  19    9   27 1
  20    9   28 1
  21    9   29 1
  22   10   30 1
  23   10   31 1
  24   10   32 1
  25   12   13 am
  26   12   14 2
  27   13   15 1
  28   13   33 1
  29   15   16 ar
  30   15   20 ar
  31   16   17 ar
  32   16   34 1
  33   17   18 ar
  34   18   19 ar
  35   18   35 1
  36   19   20 ar
  37   19   36 1

#	End of record

