#	Name: ASD08151014
#	Creating user name:	WinNT
#	Creation time:	15. 06. 2019 21:16

#	Modifying user name:	WinNT
#	Modification time:	15. 06. 2019 21:16

#	Program:	/corina/corina34_cracker 3.40 0067  02.08.2006

@<TRIPOS>MOLECULE
ASD08151014
  62   64    0    0    0
SMALL
NO_CHARGES


@<TRIPOS>ATOM
   1 N1            -0.2011     1.3844     0.2725 N.2     
   2 C2            -0.5802     0.2695     0.8267 C.2     
   3 N3            -0.2340     0.2635     2.1451 N.pl3   
   4 C4             0.3969     1.4527     2.4102 C.ar    
   5 N5             0.9433     2.0053     3.4882 N.ar    
   6 C6             1.4907     3.2008     3.4249 C.ar    
   7 N7             1.5272     3.9056     2.3089 N.ar    
   8 C8             1.0062     3.4350     1.1803 C.ar    
   9 C9             0.4107     2.1625     1.1974 C.ar    
  10 N10            1.0488     4.1812     0.0156 N.pl3   
  11 C11            1.6735     5.5064     0.0171 C.3     
  12 C12            2.1034     5.8691    -1.4057 C.3     
  13 N13            0.6176     9.7935     2.1280 N.ar    
  14 C14           -0.2417    10.6824     2.5659 C.ar    
  15 C15           -1.6166    10.4821     2.4671 C.ar    
  16 C16           -2.0992     9.3361     1.9020 C.ar    
  17 C17           -1.1725     8.3852     1.4331 C.ar    
  18 C18           -1.5966     7.1843     0.8416 C.ar    
  19 C19           -0.6778     6.2814     0.3973 C.ar    
  20 C20            0.6850     6.5272     0.5189 C.ar    
  21 C21            1.1443     7.6979     1.0956 C.ar    
  22 C22            0.2114     8.6535     1.5659 C.ar    
  23 C23            2.5988     7.9491     1.2204 C.ar    
  24 C24            3.2868     7.5345     2.3633 C.ar    
  25 C25            4.6438     7.7724     2.4725 C.ar    
  26 C26            5.3190     8.4196     1.4535 C.ar    
  27 C27            4.6420     8.8325     0.3199 C.ar    
  28 C28            3.2882     8.5952     0.1953 C.ar    
  29 F29            2.6274     6.9031     3.3592 F       
  30 H30           -1.0936    -0.5325     0.3172 H       
  31 H31           -0.4031    -0.4504     2.7797 H       
  32 H32            1.9261     3.6211     4.3195 H       
  33 H33            0.6650     3.8269    -0.8017 H       
  34 H34            2.5470     5.4955     0.6690 H       
  35 H35            2.8184     5.1308    -1.7687 H       
  36 H36            1.2298     5.8800    -2.0576 H       
  37 H37            2.5682     6.8551    -1.4046 H       
  38 H38            0.1263    11.5930     3.0150 H       
  39 H39           -2.3001    11.2319     2.8372 H       
  40 H40           -3.1620     9.1639     1.8175 H       
  41 H41           -2.6514     6.9759     0.7393 H       
  42 H42           -1.0135     5.3604    -0.0559 H       
  43 H43            5.1779     7.4528     3.3551 H       
  44 H44            6.3794     8.6037     1.5433 H       
  45 H45            5.1753     9.3376    -0.4718 H       
  46 H46            2.7627     8.9139    -0.6929 H       
  47 C47           12.5508    18.5813    10.4663 C.2     
  48 C48           12.5713    17.0744    10.4580 C.3     
  49 O49           13.5889    19.1996    10.4597 O.2     
  50 O50           11.3794    19.2365    10.4754 O.3     
  51 F51           13.8964    16.6261    10.4430 F       
  52 F52           11.9291    16.5930    11.6039 F       
  53 F53           11.9073    16.6053     9.3195 F       
  54 H54           11.4169    20.2028    10.4805 H       
  55 C55           20.0679    27.1910    17.7507 C.2     
  56 C56           20.0883    25.6842    17.7424 C.3     
  57 O57           21.1059    27.8093    17.7441 O.2     
  58 O58           18.8964    27.8463    17.7598 O.3     
  59 F59           21.4134    25.2359    17.7274 F       
  60 F60           19.4461    25.2028    18.8883 F       
  61 F61           19.4243    25.2151    16.6039 F       
  62 H62           18.9339    28.8126    17.7649 H       
@<TRIPOS>BOND
   1    1    2 2
   2    1    9 1
   3    2    3 1
   4    2   30 1
   5    3    4 1
   6    3   31 1
   7    4    5 ar
   8    4    9 ar
   9    5    6 ar
  10    6    7 ar
  11    6   32 1
  12    7    8 ar
  13    8    9 ar
  14    8   10 1
  15   10   11 1
  16   10   33 1
  17   11   12 1
  18   11   20 1
  19   11   34 1
  20   12   35 1
  21   12   36 1
  22   12   37 1
  23   13   14 ar
  24   13   22 ar
  25   14   15 ar
  26   14   38 1
  27   15   16 ar
  28   15   39 1
  29   16   17 ar
  30   16   40 1
  31   17   18 ar
  32   17   22 ar
  33   18   19 ar
  34   18   41 1
  35   19   20 ar
  36   19   42 1
  37   20   21 ar
  38   21   22 ar
  39   21   23 1
  40   23   24 ar
  41   23   28 ar
  42   24   25 ar
  43   24   29 1
  44   25   26 ar
  45   25   43 1
  46   26   27 ar
  47   26   44 1
  48   27   28 ar
  49   27   45 1
  50   28   46 1
  51   47   48 1
  52   47   49 2
  53   47   50 1
  54   48   51 1
  55   48   52 1
  56   48   53 1
  57   50   54 1
  58   55   56 1
  59   55   57 2
  60   55   58 1
  61   56   59 1
  62   56   60 1
  63   56   61 1
  64   58   62 1

#	End of record

