#	Name: ASD02039083
#	Creating user name:	WinNT
#	Creation time:	15. 06. 2019 20:17

#	Modifying user name:	WinNT
#	Modification time:	15. 06. 2019 20:17

#	Program:	/corina/corina34_cracker 3.40 0067  02.08.2006

@<TRIPOS>MOLECULE
ASD02039083
  43   46    0    0    0
SMALL
NO_CHARGES


@<TRIPOS>ATOM
   1 N1             0.0234     1.2846    -0.3607 N.2     
   2 N2             0.0398    -0.0019    -0.3619 N.2     
   3 C3             1.2244     1.7332    -0.0875 C.2     
   4 O4             2.0204     0.6620     0.0884 O.3     
   5 C5             1.2410    -0.4221    -0.0919 C.2     
   6 N6             1.6034     3.0605     0.0028 N.pl3   
   7 C7             0.6393     4.0715    -0.0882 C.ar    
   8 C8             1.6809    -1.8604     0.0021 C.3     
   9 O9             2.1170    -2.3101    -1.2822 O.3     
  10 C10            2.5498    -3.5958    -1.3719 C.ar    
  11 C11            2.9844    -4.0913    -2.5850 C.ar    
  12 C12            2.5578    -4.4048    -0.2384 C.ar    
  13 C13            2.9936    -5.7097    -0.3102 C.ar    
  14 C14            3.4307    -6.2303    -1.5234 C.ar    
  15 C15            3.4287    -5.4146    -2.6708 C.ar    
  16 C16           -0.6626     3.8294     0.3297 C.ar    
  17 C17            0.9859     5.3188    -0.5911 C.ar    
  18 C18            0.0348     6.3162    -0.6799 C.ar    
  19 C19           -1.2667     6.0730    -0.2670 C.ar    
  20 C20           -1.6135     4.8283     0.2398 C.ar    
  21 N21            3.8707    -7.5352    -1.6162 N.am    
  22 C22            4.2933    -8.0410    -2.7880 C.2     
  23 C23            4.3065    -7.2662    -3.9675 C.2     
  24 C24            3.8911    -5.9757    -3.9417 C.2     
  25 O25            4.6750    -9.1977    -2.8327 O.2     
  26 Cl26          -3.2429     4.5245     0.7558 Cl      
  27 O27           -2.2025     7.0562    -0.3545 O.3     
  28 C28           -1.7748     8.3139    -0.8810 C.3     
  29 H29            2.5372     3.2907     0.1291 H       
  30 H30            2.5019    -1.9434     0.7143 H       
  31 H31            0.8453    -2.4747     0.3377 H       
  32 H32            2.9810    -3.4612    -3.4622 H       
  33 H33            2.2194    -4.0053     0.7062 H       
  34 H34            2.9963    -6.3279     0.5753 H       
  35 H35           -0.9321     2.8609     0.7243 H       
  36 H36            1.9993     5.5089    -0.9125 H       
  37 H37            0.3048     7.2862    -1.0707 H       
  38 H38            3.8754    -8.0955    -0.8244 H       
  39 H39            4.6523    -7.7016    -4.8934 H       
  40 H40            3.8977    -5.3759    -4.8397 H       
  41 H41           -0.9814     8.7197    -0.2533 H       
  42 H42           -1.4005     8.1748    -1.8952 H       
  43 H43           -2.6163     9.0065    -0.8961 H       
@<TRIPOS>BOND
   1    1    2 1
   2    1    3 2
   3    2    5 2
   4    3    4 1
   5    3    6 1
   6    4    5 1
   7    5    8 1
   8    6    7 1
   9    6   29 1
  10    7   16 ar
  11    7   17 ar
  12    8    9 1
  13    8   30 1
  14    8   31 1
  15    9   10 1
  16   10   11 ar
  17   10   12 ar
  18   11   15 ar
  19   11   32 1
  20   12   13 ar
  21   12   33 1
  22   13   14 ar
  23   13   34 1
  24   14   15 ar
  25   14   21 1
  26   15   24 1
  27   16   20 ar
  28   16   35 1
  29   17   18 ar
  30   17   36 1
  31   18   19 ar
  32   18   37 1
  33   19   20 ar
  34   19   27 1
  35   20   26 1
  36   21   22 am
  37   21   38 1
  38   22   23 1
  39   22   25 2
  40   23   24 2
  41   23   39 1
  42   24   40 1
  43   27   28 1
  44   28   41 1
  45   28   42 1
  46   28   43 1

#	End of record

