#	Name: ASD01200136
#	Creating user name:	WinNT
#	Creation time:	15. 06. 2019 19:08

#	Modifying user name:	WinNT
#	Modification time:	15. 06. 2019 19:08

#	Program:	/corina/corina34_cracker 3.40 0067  02.08.2006

@<TRIPOS>MOLECULE
ASD01200136
  53   56    0    0    0
SMALL
NO_CHARGES


@<TRIPOS>ATOM
   1 C1            -0.0196     1.3722    -0.0082 C.ar    
   2 C2             0.0019    -0.0110    -0.0155 C.ar    
   3 C3             1.2098    -0.6889    -0.0249 C.ar    
   4 C4             2.3918     0.0142    -0.0269 C.ar    
   5 C5             2.3818     1.4113    -0.0195 C.ar    
   6 C6             1.1606     2.0872    -0.0101 C.ar    
   7 C7             3.8416    -0.4018    -0.0360 C.3     
   8 N8             4.6249     0.8390    -0.0333 N.am    
   9 C9             3.7794     1.8839    -0.0237 C.2     
  10 O10            4.1180     3.0514    -0.0189 O.2     
  11 S11            4.2186    -1.3803     1.4442 S.3     
  12 C12            6.0874     0.9247    -0.0398 C.3     
  13 C13            6.5820     0.9615    -1.4629 C.ar    
  14 C14            3.6296    -3.0372     0.9990 C.3     
  15 C15            3.8761    -3.9830     2.1461 C.2     
  16 N16            3.5169    -5.2777     2.0411 N.am    
  17 O17            4.3977    -3.5791     3.1636 O.2     
  18 C18            3.8402    -6.1727     3.0535 C.ar    
  19 N19            4.5855    -5.7661     4.0713 N.ar    
  20 C20            4.9165    -6.5784     5.0532 C.ar    
  21 C21            4.4864    -7.9067     5.0497 C.ar    
  22 C22            3.6960    -8.3636     3.9840 C.ar    
  23 C23            3.3717    -7.4826     2.9871 C.ar    
  24 C24            4.8578    -8.8163     6.1495 C.2     
  25 O25            4.4787    -9.9706     6.1374 O.2     
  26 O26            5.6176    -8.3673     7.1677 O.3     
  27 C27            5.9443    -9.3180     8.2155 C.3     
  28 C28            6.7389     2.1735    -2.1089 C.ar    
  29 C29            7.1926     2.2073    -3.4143 C.ar    
  30 C30            7.4898     1.0291    -4.0734 C.ar    
  31 C31            7.3339    -0.1828    -3.4270 C.ar    
  32 C32            6.8843    -0.2164    -2.1202 C.ar    
  33 H33           -0.9646     1.8950    -0.0055 H       
  34 H34           -0.9259    -0.5639    -0.0136 H       
  35 H35            1.2234    -1.7688    -0.0302 H       
  36 H36            1.1394     3.1670    -0.0047 H       
  37 H37            4.0596    -0.9804    -0.9337 H       
  38 H38            6.4005     1.8317     0.4773 H       
  39 H39            6.5046     0.0548     0.4675 H       
  40 H40            2.5618    -2.9976     0.7838 H       
  41 H41            4.1652    -3.3884     0.1170 H       
  42 H42            3.0326    -5.5848     1.2587 H       
  43 H43            5.5256    -6.2144     5.8675 H       
  44 H44            3.3481    -9.3855     3.9528 H       
  45 H45            2.7649    -7.8028     2.1530 H       
  46 H46            6.4941   -10.1560     7.7872 H       
  47 H47            6.5585    -8.8287     8.9714 H       
  48 H48            5.0254    -9.6829     8.6744 H       
  49 H49            6.5066     3.0940    -1.5940 H       
  50 H50            7.3144     3.1541    -3.9193 H       
  51 H51            7.8436     1.0555    -5.0934 H       
  52 H52            7.5658    -1.1033    -3.9421 H       
  53 H53            6.7625    -1.1632    -1.6152 H       
@<TRIPOS>BOND
   1    1    2 ar
   2    1    6 ar
   3    1   33 1
   4    2    3 ar
   5    2   34 1
   6    3    4 ar
   7    3   35 1
   8    4    5 ar
   9    4    7 1
  10    5    6 ar
  11    5    9 1
  12    6   36 1
  13    7    8 1
  14    7   11 1
  15    7   37 1
  16    8    9 am
  17    8   12 1
  18    9   10 2
  19   11   14 1
  20   12   13 1
  21   12   38 1
  22   12   39 1
  23   13   28 ar
  24   13   32 ar
  25   14   15 1
  26   14   40 1
  27   14   41 1
  28   15   16 am
  29   15   17 2
  30   16   18 1
  31   16   42 1
  32   18   19 ar
  33   18   23 ar
  34   19   20 ar
  35   20   21 ar
  36   20   43 1
  37   21   22 ar
  38   21   24 1
  39   22   23 ar
  40   22   44 1
  41   23   45 1
  42   24   25 2
  43   24   26 1
  44   26   27 1
  45   27   46 1
  46   27   47 1
  47   27   48 1
  48   28   29 ar
  49   28   49 1
  50   29   30 ar
  51   29   50 1
  52   30   31 ar
  53   30   51 1
  54   31   32 ar
  55   31   52 1
  56   32   53 1

#	End of record

