#	Name: ASD01940571
#	Creating user name:	WinNT
#	Creation time:	15. 06. 2019 20:12

#	Modifying user name:	WinNT
#	Modification time:	15. 06. 2019 20:12

#	Program:	/corina/corina34_cracker 3.40 0067  02.08.2006

@<TRIPOS>MOLECULE
ASD01940571
  80   86    0    0    0
SMALL
NO_CHARGES


@<TRIPOS>ATOM
   1 C1             0.0886     1.4752    -0.5088 C.ar    
   2 C2             0.4277     0.6427     0.5477 C.ar    
   3 C3             1.6498    -0.0150     0.5444 C.ar    
   4 C4             2.5294     0.1623    -0.5161 C.ar    
   5 C5             2.1887     0.9927    -1.5666 C.ar    
   6 C6             0.9728     1.6483    -1.5664 C.ar    
   7 N7            -1.1461     2.1361    -0.5120 N.am    
   8 C8            -1.1950     3.4815    -0.1913 C.2     
   9 C9            -2.4435     4.1481    -0.1950 C.2     
  10 C10           -3.6496     3.3669    -0.5447 C.2     
  11 N11           -3.4788     2.0087    -0.8519 N.am    
  12 C12           -2.2566     1.4523    -0.8315 C.2     
  13 C13           -0.0568     4.1959     0.1331 C.2     
  14 C14           -0.1690     5.5525     0.4477 C.2     
  15 N15           -1.3640     6.1693     0.4394 N.am    
  16 C16           -2.5070     5.4927     0.1235 C.2     
  17 N17           -3.7160     6.1452     0.1216 N.pl3   
  18 C18           -1.4406     7.5932     0.7756 C.3     
  19 O19            0.8337     6.1880     0.7350 O.2     
  20 C20            1.2895     3.5190     0.1478 C.3     
  21 C21           -4.8590     3.9343    -0.5669 C.2     
  22 C22           -4.5926     1.2271    -1.1889 C.ar    
  23 N23            1.9956    -0.8549     1.6078 N.am    
  24 C24            1.5999    -0.5539     2.8605 C.2     
  25 C25            1.8642    -1.4978     3.9653 C.ar    
  26 O26            1.0255     0.4947     3.0811 O.2     
  27 C27           -4.4974     6.1739     1.2819 C.ar    
  28 C28           -4.0091     5.6323     2.4634 C.ar    
  29 C29           -4.7828     5.6621     3.6073 C.ar    
  30 C30           -6.0433     6.2301     3.5778 C.ar    
  31 C31           -6.5343     6.7709     2.4037 C.ar    
  32 C32           -5.7630     6.7502     1.2560 C.ar    
  33 F33           -6.2403     7.2835     0.1102 F       
  34 O34           -2.1517     0.2734    -1.1093 O.2     
  35 C35           -6.8840     6.2593     4.8281 C.3     
  36 C36            1.4552    -1.1882     5.2644 C.ar    
  37 C37            1.7033    -2.0722     6.2925 C.ar    
  38 C38            2.3578    -3.2676     6.0401 C.ar    
  39 C39            2.7675    -3.5815     4.7512 C.ar    
  40 C40            2.5186    -2.7054     3.7136 C.ar    
  41 C41           -5.2979     1.4898    -2.3558 C.ar    
  42 C42           -6.3951     0.7196    -2.6885 C.ar    
  43 C43           -6.7934    -0.3166    -1.8577 C.ar    
  44 C44           -6.0890    -0.5808    -0.6899 C.ar    
  45 C45           -4.9874     0.1865    -0.3590 C.ar    
  46 F46            2.5984    -4.1302     7.0517 F       
  47 F47            3.4058    -4.7477     4.5112 F       
  48 O48           -7.8743    -1.0742    -2.1860 O.3     
  49 C49           -7.3112     7.6287     5.3603 C.3     
  50 C50           -8.3386     6.7136     4.6909 C.3     
  51 F51           -6.4772    -1.5904     0.1196 F       
  52 H52           -0.2578     0.5068     1.3711 H       
  53 H53            3.4806    -0.3492    -0.5193 H       
  54 H54            2.8745     1.1296    -2.3896 H       
  55 H55            0.7092     2.2962    -2.3894 H       
  56 H56           -4.0279     6.5860    -0.6843 H       
  57 H57           -0.4571     7.9470     1.0847 H       
  58 H58           -1.7710     8.1554    -0.0979 H       
  59 H59           -2.1509     7.7365     1.5899 H       
  60 H60            1.6986     3.5019    -0.8624 H       
  61 H61            1.9650     4.0677     0.8040 H       
  62 H62            1.1787     2.4977     0.5123 H       
  63 H63           -4.9794     4.9613    -0.2549 H       
  64 H64           -5.7161     3.3661    -0.8968 H       
  65 H65            2.5202    -1.6542     1.4438 H       
  66 H66           -3.0251     5.1877     2.4879 H       
  67 H67           -4.4028     5.2407     4.5263 H       
  68 H68           -7.5193     7.2134     2.3840 H       
  69 H69           -6.6664     5.4807     5.5593 H       
  70 H70            0.9454    -0.2571     5.4632 H       
  71 H71            1.3874    -1.8326     7.2971 H       
  72 H72            2.8333    -2.9515     2.7102 H       
  73 H73           -4.9886     2.2969    -3.0034 H       
  74 H74           -6.9433     0.9247    -3.5961 H       
  75 H75           -4.4368    -0.0210     0.5467 H       
  76 H76           -7.6625    -1.8497    -2.7235 H       
  77 H77           -7.3751     7.7509     6.4416 H       
  78 H78           -6.9842     8.5084     4.8061 H       
  79 H79           -8.6874     6.9913     3.6963 H       
  80 H80           -9.0783     6.2337     5.3318 H       
@<TRIPOS>BOND
   1    1    2 ar
   2    1    6 ar
   3    1    7 1
   4    2    3 ar
   5    2   52 1
   6    3    4 ar
   7    3   23 1
   8    4    5 ar
   9    4   53 1
  10    5    6 ar
  11    5   54 1
  12    6   55 1
  13    7    8 1
  14    7   12 am
  15    8   13 2
  16    8    9 1
  17    9   10 1
  18    9   16 2
  19   10   11 1
  20   10   21 2
  21   11   12 am
  22   11   22 1
  23   12   34 2
  24   13   14 1
  25   13   20 1
  26   14   15 am
  27   14   19 2
  28   15   16 1
  29   15   18 1
  30   16   17 1
  31   17   27 1
  32   17   56 1
  33   18   57 1
  34   18   58 1
  35   18   59 1
  36   20   60 1
  37   20   61 1
  38   20   62 1
  39   21   63 1
  40   21   64 1
  41   22   41 ar
  42   22   45 ar
  43   23   24 am
  44   23   65 1
  45   24   25 1
  46   24   26 2
  47   25   36 ar
  48   25   40 ar
  49   27   28 ar
  50   27   32 ar
  51   28   29 ar
  52   28   66 1
  53   29   30 ar
  54   29   67 1
  55   30   31 ar
  56   30   35 1
  57   31   32 ar
  58   31   68 1
  59   32   33 1
  60   35   49 1
  61   35   50 1
  62   35   69 1
  63   36   37 ar
  64   36   70 1
  65   37   38 ar
  66   37   71 1
  67   38   39 ar
  68   38   46 1
  69   39   40 ar
  70   39   47 1
  71   40   72 1
  72   41   42 ar
  73   41   73 1
  74   42   43 ar
  75   42   74 1
  76   43   44 ar
  77   43   48 1
  78   44   45 ar
  79   44   51 1
  80   45   75 1
  81   48   76 1
  82   49   50 1
  83   49   77 1
  84   49   78 1
  85   50   79 1
  86   50   80 1

#	End of record

