#	Name: ASD05723020
#	Creating user name:	WinNT
#	Creation time:	15. 06. 2019 21:02

#	Modifying user name:	WinNT
#	Modification time:	15. 06. 2019 21:02

#	Program:	/corina/corina34_cracker 3.40 0067  02.08.2006

@<TRIPOS>MOLECULE
ASD05723020
  64   68    0    0    0
SMALL
NO_CHARGES


@<TRIPOS>ATOM
   1 C1             0.0164     1.7478    -0.4256 C.ar    
   2 C2            -0.0165     0.3734    -0.1602 C.ar    
   3 N3             1.0943    -0.3275    -0.0035 N.ar    
   4 C4             2.2915     0.2493    -0.0924 C.ar    
   5 C5             2.3885     1.6380    -0.3594 C.ar    
   6 C6             1.2190     2.3912    -0.5273 C.ar    
   7 N7             3.4235    -0.4525     0.0654 N.ar    
   8 C8             4.5987     0.1409    -0.0268 C.ar    
   9 N9             4.7330     1.4404    -0.2754 N.ar    
  10 C10            3.6759     2.2216    -0.4475 C.ar    
  11 N11            3.8258     3.5670    -0.7042 N.3     
  12 C12            4.9859     3.8115    -1.5736 C.3     
  13 C13            5.0799     5.3083    -1.8812 C.3     
  14 O14            5.1598     6.0380    -0.6538 O.3     
  15 C15            4.0457     5.8238     0.2170 C.3     
  16 C16            3.9412     4.3322     0.5458 C.3     
  17 C17            4.8194     3.0311    -2.8790 C.3     
  18 C18           -1.3268    -0.3122    -0.0519 C.ar    
  19 C19           -1.3794    -1.6773     0.2113 C.ar    
  20 C20           -2.6149    -2.3146     0.3122 C.ar    
  21 C21           -3.7909    -1.5798     0.1487 C.ar    
  22 C22           -3.7308    -0.2253    -0.1123 C.ar    
  23 C23           -2.5093     0.4119    -0.2080 C.ar    
  24 C24           -2.6800    -3.7652     0.5912 C.2     
  25 O25           -1.6553    -4.4034     0.7329 O.2     
  26 N26            5.7390    -0.6209     0.1428 N.3     
  27 C27            5.5730    -1.9565    -0.4487 C.3     
  28 C28            6.8766    -2.7439    -0.2915 C.3     
  29 O29            7.2266    -2.8050     1.0939 O.3     
  30 C30            7.3967    -1.5217     1.7018 C.3     
  31 C31            6.0985    -0.7219     1.5647 C.3     
  32 N32           -3.8756    -4.3797     0.6884 N.am    
  33 C33           -3.9401    -5.8169     0.9648 C.3     
  34 C34            5.2354    -1.8189    -1.9346 C.3     
  35 H35           -0.9046     2.2970    -0.5539 H       
  36 H36            1.2659     3.4508    -0.7311 H       
  37 H37            5.8948     3.4861    -1.0677 H       
  38 H38            5.9709     5.5019    -2.4784 H       
  39 H39            4.1948     5.6225    -2.4344 H       
  40 H40            4.1888     6.3902     1.1372 H       
  41 H41            3.1306     6.1530    -0.2752 H       
  42 H42            3.0601     4.1564     1.1629 H       
  43 H43            4.8335     4.0151     1.0856 H       
  44 H44            3.8599     3.2809    -3.3318 H       
  45 H45            5.6244     3.2946    -3.5650 H       
  46 H46            4.8552     1.9619    -2.6703 H       
  47 H47           -0.4667    -2.2410     0.3366 H       
  48 H48           -4.7492    -2.0719     0.2261 H       
  49 H49           -4.6430     0.3391    -0.2381 H       
  50 H50           -2.4691     1.4717    -0.4120 H       
  51 H51            4.7662    -2.4828     0.0613 H       
  52 H52            6.7403    -3.7542    -0.6773 H       
  53 H53            7.6718    -2.2459    -0.8462 H       
  54 H54            7.6367    -1.6480     2.7575 H       
  55 H55            8.2071    -0.9881     1.2050 H       
  56 H56            6.2415     0.2774     1.9759 H       
  57 H57            5.3000    -1.2284     2.1069 H       
  58 H58           -4.6933    -3.8704     0.5753 H       
  59 H59           -3.4586    -6.0251     1.9203 H       
  60 H60           -4.9826    -6.1324     1.0070 H       
  61 H61           -3.4271    -6.3626     0.1729 H       
  62 H62            6.0702    -1.3493    -2.4549 H       
  63 H63            5.0521    -2.8062    -2.3585 H       
  64 H64            4.3433    -1.2030    -2.0490 H       
@<TRIPOS>BOND
   1    1    2 ar
   2    1    6 ar
   3    1   35 1
   4    2    3 ar
   5    2   18 1
   6    3    4 ar
   7    4    5 ar
   8    4    7 ar
   9    5    6 ar
  10    5   10 ar
  11    6   36 1
  12    7    8 ar
  13    8    9 ar
  14    8   26 1
  15    9   10 ar
  16   10   11 1
  17   11   12 1
  18   11   16 1
  19   12   13 1
  20   12   17 1
  21   12   37 1
  22   13   14 1
  23   13   38 1
  24   13   39 1
  25   14   15 1
  26   15   16 1
  27   15   40 1
  28   15   41 1
  29   16   42 1
  30   16   43 1
  31   17   44 1
  32   17   45 1
  33   17   46 1
  34   18   19 ar
  35   18   23 ar
  36   19   20 ar
  37   19   47 1
  38   20   21 ar
  39   20   24 1
  40   21   22 ar
  41   21   48 1
  42   22   23 ar
  43   22   49 1
  44   23   50 1
  45   24   25 2
  46   24   32 am
  47   26   27 1
  48   26   31 1
  49   27   28 1
  50   27   34 1
  51   27   51 1
  52   28   29 1
  53   28   52 1
  54   28   53 1
  55   29   30 1
  56   30   31 1
  57   30   54 1
  58   30   55 1
  59   31   56 1
  60   31   57 1
  61   32   33 1
  62   32   58 1
  63   33   59 1
  64   33   60 1
  65   33   61 1
  66   34   62 1
  67   34   63 1
  68   34   64 1

#	End of record

