#	Name: ASD01912090
#	Creating user name:	WinNT
#	Creation time:	15. 06. 2019 19:59

#	Modifying user name:	WinNT
#	Modification time:	15. 06. 2019 19:59

#	Program:	/corina/corina34_cracker 3.40 0067  02.08.2006

@<TRIPOS>MOLECULE
ASD01912090
  52   56    0    0    0
SMALL
NO_CHARGES


@<TRIPOS>ATOM
   1 C1            -0.0045     1.4159     0.0523 C.2     
   2 C2            -0.0094     0.0112     0.0265 C.2     
   3 N3             1.2378    -0.4057    -0.0382 N.2     
   4 N4             2.0784     0.7144    -0.0559 N.pl3   
   5 C5             1.2946     1.8289     0.0006 C.2     
   6 C6             1.7673     3.2313     0.0045 C.ar    
   7 C7             3.0198     3.5497    -0.5208 C.ar    
   8 C8             3.4549     4.8590    -0.5142 C.ar    
   9 C9             2.6518     5.8552     0.0119 C.ar    
  10 C10            1.4087     5.5458     0.5343 C.ar    
  11 C11            0.9599     4.2411     0.5283 C.ar    
  12 C12           -1.2144    -0.8547     0.0656 C.ar    
  13 C13           -1.0798    -2.2409     0.0337 C.ar    
  14 C14           -2.2028    -3.0423     0.0707 C.ar    
  15 C15           -3.4624    -2.4701     0.1394 C.ar    
  16 C16           -3.6008    -1.0918     0.1707 C.ar    
  17 C17           -2.4832    -0.2834     0.1400 C.ar    
  18 F18           -4.5592    -3.2582     0.1754 F       
  19 C19            3.5417     0.6926    -0.1225 C.3     
  20 C20            3.9776     0.5812    -1.5607 C.2     
  21 N21            5.2897     0.5435    -1.8663 N.am    
  22 O22            3.1476     0.5255    -2.4433 O.2     
  23 C23            5.8809     0.4376    -3.2057 C.3     
  24 C24           -2.0584    -4.5419     0.0358 C.3     
  25 C25            7.3793     0.4335    -3.0391 C.2     
  26 C26            7.6839     0.5267    -1.7381 C.2     
  27 C27            6.4164     0.6064    -0.9273 C.3     
  28 N28            8.5369     0.3693    -3.7258 N.2     
  29 C29            9.5264     0.4207    -2.8811 C.2     
  30 O30            9.0295     0.5185    -1.6412 O.3     
  31 C31           10.9895     0.3766    -3.2394 C.3     
  32 H32           -0.8740     2.0547     0.0999 H       
  33 H33            3.6477     2.7728    -0.9314 H       
  34 H34            4.4245     5.1068    -0.9202 H       
  35 H35            2.9970     6.8785     0.0151 H       
  36 H36            0.7864     6.3279     0.9436 H       
  37 H37           -0.0107     4.0008     0.9364 H       
  38 H38           -0.0981    -2.6877    -0.0202 H       
  39 H39           -4.5848    -0.6497     0.2239 H       
  40 H40           -2.5919     0.7908     0.1645 H       
  41 H41            3.9387     1.6123     0.3073 H       
  42 H42            3.9182    -0.1627     0.4386 H       
  43 H43            5.5587    -0.4892    -3.6804 H       
  44 H44            5.5782     1.2910    -3.8125 H       
  45 H45           -1.9761    -4.9228     1.0538 H       
  46 H46           -2.9323    -4.9799    -0.4464 H       
  47 H47           -1.1625    -4.8077    -0.5252 H       
  48 H48            6.3906     1.5437    -0.3716 H       
  49 H49            6.3643    -0.2363    -0.2380 H       
  50 H50           11.3544     1.3907    -3.4024 H       
  51 H51           11.5491    -0.0845    -2.4256 H       
  52 H52           11.1232    -0.2084    -4.1494 H       
@<TRIPOS>BOND
   1    1    2 1
   2    1    5 2
   3    1   32 1
   4    2    3 2
   5    2   12 1
   6    3    4 1
   7    4    5 1
   8    4   19 1
   9    5    6 1
  10    6    7 ar
  11    6   11 ar
  12    7    8 ar
  13    7   33 1
  14    8    9 ar
  15    8   34 1
  16    9   10 ar
  17    9   35 1
  18   10   11 ar
  19   10   36 1
  20   11   37 1
  21   12   13 ar
  22   12   17 ar
  23   13   14 ar
  24   13   38 1
  25   14   15 ar
  26   14   24 1
  27   15   16 ar
  28   15   18 1
  29   16   17 ar
  30   16   39 1
  31   17   40 1
  32   19   20 1
  33   19   41 1
  34   19   42 1
  35   20   21 am
  36   20   22 2
  37   21   23 1
  38   21   27 1
  39   23   25 1
  40   23   43 1
  41   23   44 1
  42   24   45 1
  43   24   46 1
  44   24   47 1
  45   25   26 2
  46   25   28 1
  47   26   27 1
  48   26   30 1
  49   27   48 1
  50   27   49 1
  51   28   29 2
  52   29   30 1
  53   29   31 1
  54   31   50 1
  55   31   51 1
  56   31   52 1

#	End of record

