#	Name: ASD01810102
#	Creating user name:	WinNT
#	Creation time:	15. 06. 2019 19:23

#	Modifying user name:	WinNT
#	Modification time:	15. 06. 2019 19:23

#	Program:	/corina/corina34_cracker 3.40 0067  02.08.2006

@<TRIPOS>MOLECULE
ASD01810102
  59   63    0    0    0
SMALL
NO_CHARGES


@<TRIPOS>ATOM
   1 C1            -0.0167     1.3808     0.0096 C.ar    
   2 C2             0.0021    -0.0041     0.0020 C.ar    
   3 C3             1.2055    -0.6843    -0.0126 C.ar    
   4 C4             2.3976     0.0230    -0.0202 C.ar    
   5 C5             2.3781     1.4195    -0.0130 C.ar    
   6 C6             1.1668     2.0933     0.0022 C.ar    
   7 N7             3.7365    -0.3607    -0.0351 N.am    
   8 C8             4.4965     0.7506    -0.0368 C.2     
   9 N9             3.7063     1.8406    -0.0237 N.am    
  10 O10            5.7132     0.7674    -0.0485 O.2     
  11 C11            4.1647     3.2320    -0.0219 C.3     
  12 C12            5.0223     3.4866     1.2208 C.3     
  13 C13            5.5481     4.9234     1.1862 C.3     
  14 N14            6.3453     5.1250    -0.0305 N.3     
  15 C15            5.5308     4.9323    -1.2370 C.3     
  16 C16            5.0045     3.4958    -1.2747 C.3     
  17 C17            6.9805     6.4496    -0.0301 C.3     
  18 C18            7.8990     6.5749    -1.2479 C.3     
  19 C19            8.5860     7.9439    -1.2256 C.3     
  20 N20            7.5564     8.9883    -1.1363 N.am    
  21 C21            6.5654     8.9127    -0.0542 C.3     
  22 C22            5.9010     7.5327    -0.0896 C.3     
  23 S23            7.5140    10.2274    -2.2341 S.o2    
  24 C24            6.4901     9.7061    -3.5699 C.ar    
  25 C25            5.1316     9.9601    -3.5394 C.ar    
  26 C26            4.3283     9.5510    -4.5873 C.ar    
  27 C27            4.8835     8.8883    -5.6660 C.ar    
  28 C28            6.2421     8.6351    -5.6969 C.ar    
  29 C29            7.0461     9.0480    -4.6509 C.ar    
  30 O30            6.8319    11.3012    -1.6010 O.2     
  31 O31            8.8295    10.3439    -2.7586 O.2     
  32 Cl32          -1.4913    -0.8891     0.0115 Cl      
  33 H33           -0.9605     1.9058     0.0169 H       
  34 H34            1.2169    -1.7642    -0.0178 H       
  35 H35            1.1483     3.1731     0.0074 H       
  36 H36            4.0653    -1.2732    -0.0424 H       
  37 H37            3.3029     3.8994    -0.0127 H       
  38 H38            4.4177     3.3419     2.1161 H       
  39 H39            5.8621     2.7919     1.2319 H       
  40 H40            4.7079     5.6178     1.1890 H       
  41 H41            6.1708     5.1035     2.0624 H       
  42 H42            4.6907     5.6266    -1.2228 H       
  43 H43            6.1410     5.1188    -2.1208 H       
  44 H44            5.8441     2.8012    -1.3029 H       
  45 H45            4.3872     3.3576    -2.1624 H       
  46 H46            7.5667     6.5710     0.8808 H       
  47 H47            8.6534     5.7887    -1.2170 H       
  48 H48            7.3094     6.4785    -2.1596 H       
  49 H49            9.2466     8.0072    -0.3609 H       
  50 H50            9.1638     8.0777    -2.1401 H       
  51 H51            7.0612     9.0549     0.9060 H       
  52 H52            5.8100     9.6856    -0.1958 H       
  53 H53            5.3303     7.4273    -1.0123 H       
  54 H54            5.2334     7.4283     0.7656 H       
  55 H55            4.6978    10.4778    -2.6966 H       
  56 H56            3.2668     9.7488    -4.5632 H       
  57 H57            4.2558     8.5681    -6.4844 H       
  58 H58            6.6758     8.1171    -6.5394 H       
  59 H59            8.1076     8.8502    -4.6751 H       
@<TRIPOS>BOND
   1    1    2 ar
   2    1    6 ar
   3    1   33 1
   4    2    3 ar
   5    2   32 1
   6    3    4 ar
   7    3   34 1
   8    4    5 ar
   9    4    7 1
  10    5    6 ar
  11    5    9 1
  12    6   35 1
  13    7    8 am
  14    7   36 1
  15    8    9 am
  16    8   10 2
  17    9   11 1
  18   11   12 1
  19   11   16 1
  20   11   37 1
  21   12   13 1
  22   12   38 1
  23   12   39 1
  24   13   14 1
  25   13   40 1
  26   13   41 1
  27   14   15 1
  28   14   17 1
  29   15   16 1
  30   15   42 1
  31   15   43 1
  32   16   44 1
  33   16   45 1
  34   17   18 1
  35   17   22 1
  36   17   46 1
  37   18   19 1
  38   18   47 1
  39   18   48 1
  40   19   20 1
  41   19   49 1
  42   19   50 1
  43   20   21 1
  44   20   23 am
  45   21   22 1
  46   21   51 1
  47   21   52 1
  48   22   53 1
  49   22   54 1
  50   23   30 2
  51   23   31 2
  52   23   24 1
  53   24   25 ar
  54   24   29 ar
  55   25   26 ar
  56   25   55 1
  57   26   27 ar
  58   26   56 1
  59   27   28 ar
  60   27   57 1
  61   28   29 ar
  62   28   58 1
  63   29   59 1

#	End of record

