#	Name: ASD01815525
#	Creating user name:	WinNT
#	Creation time:	15. 06. 2019 19:33

#	Modifying user name:	WinNT
#	Modification time:	15. 06. 2019 19:33

#	Program:	/corina/corina34_cracker 3.40 0067  02.08.2006

@<TRIPOS>MOLECULE
ASD01815525
  71   77    0    0    0
SMALL
NO_CHARGES


@<TRIPOS>ATOM
   1 C1             0.9180     1.9844     0.0801 C.ar    
   2 C2             0.6401     0.6218     0.1191 C.ar    
   3 C3             1.6395    -0.3009     0.0307 C.ar    
   4 C4             2.9703     0.1243    -0.1017 C.ar    
   5 C5             3.2494     1.5122    -0.1410 C.ar    
   6 C6             2.2004     2.4325    -0.0479 C.ar    
   7 C7             4.0253    -0.8073    -0.1958 C.ar    
   8 C8             5.3105    -0.3996    -0.3242 C.ar    
   9 C9             5.6412     0.9638    -0.3683 C.ar    
  10 C10            4.6370     1.9448    -0.2791 C.ar    
  11 C11            7.0310     1.4173    -0.5083 C.2     
  12 N12            7.2509     2.7522    -0.5423 N.am    
  13 C13            6.2152     3.6231    -0.4489 C.2     
  14 N14            4.9768     3.2439    -0.3249 N.2     
  15 O15            7.9502     0.6227    -0.5901 O.2     
  16 C16            8.6180     3.2604    -0.6805 C.3     
  17 C17            8.9656     4.1254     0.5327 C.3     
  18 C18           10.3933     4.6562     0.3883 C.3     
  19 C19           10.4981     5.4979    -0.8851 C.3     
  20 C20           10.1505     4.6328    -2.0983 C.3     
  21 C21            8.7228     4.1020    -1.9539 C.3     
  22 O22            8.8676     3.3394     1.7220 O.3     
  23 C23            3.7172    -2.2818    -0.1523 C.3     
  24 N24            3.4671    -2.6890     1.2368 N.3     
  25 C25            3.0733    -4.0997     1.3081 C.3     
  26 C26            2.9168    -4.5318     2.7425 C.ar    
  27 C27            3.4558    -3.8068     3.7835 C.ar    
  28 C28            4.2275    -2.5343     3.5452 C.3     
  29 C29            4.6498    -2.4471     2.0783 C.3     
  30 C30            2.2087    -5.6948     3.0083 C.ar    
  31 C31            2.0431    -6.1296     4.3076 C.ar    
  32 C32            2.5860    -5.4031     5.3513 C.ar    
  33 C33            3.2904    -4.2455     5.0886 C.ar    
  34 C34            1.7638    -4.2876     0.5863 C.ar    
  35 C35            1.6067    -5.3012    -0.3466 C.ar    
  36 C36            0.6857    -3.4547     0.8436 C.ar    
  37 C37           -0.4995    -3.6573     0.1622 C.ar    
  38 N38           -0.6114    -4.6287    -0.7225 N.ar    
  39 C39            0.3912    -5.4430    -0.9888 C.ar    
  40 H40            0.1085     2.6960     0.1475 H       
  41 H41           -0.3826     0.2902     0.2213 H       
  42 H42            1.4081    -1.3553     0.0629 H       
  43 H43            2.4043     3.4926    -0.0774 H       
  44 H44            6.0959    -1.1376    -0.3935 H       
  45 H45            6.4287     4.6814    -0.4790 H       
  46 H46            9.3127     2.4226    -0.7404 H       
  47 H47            8.2708     4.9632     0.5926 H       
  48 H48           10.6409     5.2725     1.2526 H       
  49 H49           11.0880     3.8185     0.3284 H       
  50 H50            9.8034     6.3356    -0.8252 H       
  51 H51           11.5153     5.8760    -0.9879 H       
  52 H52           10.2253     5.2324    -3.0054 H       
  53 H53           10.8453     3.7951    -2.1582 H       
  54 H54            8.4752     3.4858    -2.8182 H       
  55 H55            8.0281     4.9398    -1.8940 H       
  56 H56            9.0749     3.8246     2.5323 H       
  57 H57            2.8327    -2.4861    -0.7557 H       
  58 H58            4.5643    -2.8419    -0.5482 H       
  59 H59            3.8382    -4.7113     0.8295 H       
  60 H60            3.5995    -1.6784     3.7926 H       
  61 H61            5.1148    -2.5252     4.1783 H       
  62 H62            5.4081    -3.2019     1.8700 H       
  63 H63            5.0501    -1.4547     1.8708 H       
  64 H64            1.7842    -6.2630     2.1938 H       
  65 H65            1.4904    -7.0353     4.5088 H       
  66 H66            2.4588    -5.7403     6.3694 H       
  67 H67            3.7146    -3.6781     5.9038 H       
  68 H68            2.4240    -5.9712    -0.5690 H       
  69 H69            0.7709    -2.6578     1.5675 H       
  70 H70           -1.3440    -3.0128     0.3569 H       
  71 H71            0.2620    -6.2273    -1.7199 H       
@<TRIPOS>BOND
   1    1    2 ar
   2    1    6 ar
   3    1   40 1
   4    2    3 ar
   5    2   41 1
   6    3    4 ar
   7    3   42 1
   8    4    5 ar
   9    4    7 ar
  10    5    6 ar
  11    5   10 ar
  12    6   43 1
  13    7    8 ar
  14    7   23 1
  15    8    9 ar
  16    8   44 1
  17    9   10 ar
  18    9   11 1
  19   10   14 1
  20   11   12 am
  21   11   15 2
  22   12   13 1
  23   12   16 1
  24   13   14 2
  25   13   45 1
  26   16   17 1
  27   16   21 1
  28   16   46 1
  29   17   18 1
  30   17   22 1
  31   17   47 1
  32   18   19 1
  33   18   48 1
  34   18   49 1
  35   19   20 1
  36   19   50 1
  37   19   51 1
  38   20   21 1
  39   20   52 1
  40   20   53 1
  41   21   54 1
  42   21   55 1
  43   22   56 1
  44   23   24 1
  45   23   57 1
  46   23   58 1
  47   24   25 1
  48   24   29 1
  49   25   26 1
  50   25   34 1
  51   25   59 1
  52   26   27 ar
  53   26   30 ar
  54   27   28 1
  55   27   33 ar
  56   28   29 1
  57   28   60 1
  58   28   61 1
  59   29   62 1
  60   29   63 1
  61   30   31 ar
  62   30   64 1
  63   31   32 ar
  64   31   65 1
  65   32   33 ar
  66   32   66 1
  67   33   67 1
  68   34   35 ar
  69   34   36 ar
  70   35   39 ar
  71   35   68 1
  72   36   37 ar
  73   36   69 1
  74   37   38 ar
  75   37   70 1
  76   38   39 ar
  77   39   71 1

#	End of record

