#	Name: ASD01814811
#	Creating user name:	WinNT
#	Creation time:	15. 06. 2019 19:33

#	Modifying user name:	WinNT
#	Modification time:	15. 06. 2019 19:33

#	Program:	/corina/corina34_cracker 3.40 0067  02.08.2006

@<TRIPOS>MOLECULE
ASD01814811
  57   61    0    0    0
SMALL
NO_CHARGES


@<TRIPOS>ATOM
   1 C1            -0.0184     1.5040     0.0103 C.3     
   2 C2             0.0021    -0.0041     0.0020 C.ar    
   3 C3             1.3469    -0.3809    -0.0128 C.ar    
   4 C4             2.1705     0.8434    -0.0141 C.2     
   5 C5            -0.9872    -0.9601     0.0059 C.ar    
   6 C6            -0.6509    -2.3033    -0.0049 C.ar    
   7 C7             0.6785    -2.6876    -0.0192 C.ar    
   8 C8             1.6782    -1.7372    -0.0240 C.ar    
   9 O9             3.3858     0.8631    -0.0253 O.2     
  10 C10            1.0356    -4.1516    -0.0299 C.3     
  11 C11            1.0213    -4.6618    -1.4478 C.ar    
  12 C12           -0.1465    -5.1737    -1.9842 C.ar    
  13 C13            2.1744    -4.6114    -2.2101 C.ar    
  14 C14            2.1666    -5.0764    -3.5095 C.ar    
  15 C15            0.9945    -5.5979    -4.0531 C.ar    
  16 C16           -0.1654    -5.6419    -3.2824 C.ar    
  17 N17            1.3846     1.9338    -0.0008 N.am    
  18 C18           -1.7355    -3.3495    -0.0006 C.3     
  19 C19            0.9800    -6.0995    -5.4499 C.2     
  20 C20           -0.1293    -6.6490    -6.1215 C.2     
  21 C21            0.2657    -6.9822    -7.3696 C.2     
  22 N22            1.5714    -6.6605    -7.4934 N.pl3   
  23 N23            2.0002    -6.1041    -6.2815 N.2     
  24 C24            1.8517     3.3224     0.0018 C.3     
  25 C25            4.2044     3.3717     0.6446 C.3     
  26 C26            2.7764     3.5666     1.2122 C.3     
  27 C27            2.6930     3.5978    -1.2568 C.3     
  28 C28            4.0996     3.9997    -0.7674 C.3     
  29 O29            2.1130     4.6651    -2.0094 O.3     
  30 C30            2.3952    -6.8555    -8.6890 C.3     
  31 H31           -0.5313     1.8765    -0.8764 H       
  32 H32           -0.5142     1.8670     0.9106 H       
  33 H33           -2.0256    -0.6631     0.0178 H       
  34 H34            2.7144    -2.0414    -0.0354 H       
  35 H35            2.0306    -4.2860     0.3945 H       
  36 H36            0.3095    -4.7071     0.5635 H       
  37 H37           -1.0450    -5.2073    -1.3859 H       
  38 H38            3.0824    -4.2070    -1.7878 H       
  39 H39            3.0673    -5.0359    -4.1041 H       
  40 H40           -1.0776    -6.0416    -3.7001 H       
  41 H41           -2.0067    -3.5959    -1.0272 H       
  42 H42           -1.3743    -4.2452     0.5048 H       
  43 H43           -2.6100    -2.9642     0.5237 H       
  44 H44           -1.1196    -6.7811    -5.7114 H       
  45 H45           -0.3536    -7.4278    -8.1339 H       
  46 H46            1.0005     4.0023     0.0381 H       
  47 H47            4.9370     3.9043     1.2509 H       
  48 H48            4.4526     2.3124     0.5788 H       
  49 H49            2.6511     4.5815     1.5894 H       
  50 H50            2.5758     2.8388     1.9985 H       
  51 H51            2.7537     2.6983    -1.8695 H       
  52 H52            4.1880     5.0846    -0.7098 H       
  53 H53            4.8647     3.5881    -1.4257 H       
  54 H54            2.5982     4.8866    -2.8160 H       
  55 H55            2.3373    -5.9677    -9.3188 H       
  56 H56            3.4307    -7.0243    -8.3932 H       
  57 H57            2.0306    -7.7195    -9.2446 H       
@<TRIPOS>BOND
   1    1    2 1
   2    1   17 1
   3    1   31 1
   4    1   32 1
   5    2    3 ar
   6    2    5 ar
   7    3    4 1
   8    3    8 ar
   9    4    9 2
  10    4   17 am
  11    5    6 ar
  12    5   33 1
  13    6    7 ar
  14    6   18 1
  15    7   10 1
  16    7    8 ar
  17    8   34 1
  18   10   11 1
  19   10   35 1
  20   10   36 1
  21   11   13 ar
  22   11   12 ar
  23   12   16 ar
  24   12   37 1
  25   13   14 ar
  26   13   38 1
  27   14   15 ar
  28   14   39 1
  29   15   16 ar
  30   15   19 1
  31   16   40 1
  32   17   24 1
  33   18   41 1
  34   18   42 1
  35   18   43 1
  36   19   20 1
  37   19   23 2
  38   20   21 2
  39   20   44 1
  40   21   22 1
  41   21   45 1
  42   22   23 1
  43   22   30 1
  44   24   27 1
  45   24   26 1
  46   24   46 1
  47   25   26 1
  48   25   28 1
  49   25   47 1
  50   25   48 1
  51   26   49 1
  52   26   50 1
  53   27   28 1
  54   27   29 1
  55   27   51 1
  56   28   52 1
  57   28   53 1
  58   29   54 1
  59   30   55 1
  60   30   56 1
  61   30   57 1

#	End of record

