#	Name: ASD03730080
#	Creating user name:	WinNT
#	Creation time:	15. 06. 2019 20:43

#	Modifying user name:	WinNT
#	Modification time:	15. 06. 2019 20:43

#	Program:	/corina/corina34_cracker 3.40 0067  02.08.2006

@<TRIPOS>MOLECULE
ASD03730080
  50   55    0    0    0
SMALL
NO_CHARGES


@<TRIPOS>ATOM
   1 C1            -0.3500     0.3399     1.2646 C.2     
   2 C2             0.0578     0.2002    -0.1794 C.3     
   3 O3             0.4971     0.4231     2.1286 O.2     
   4 N4            -1.6559     0.3780     1.5954 N.am    
   5 O5             6.7937     0.6195     2.2019 O.3     
   6 C6             8.0149     0.1143     2.4391 C.2     
   7 O7             8.1503    -1.0468     1.7783 O.3     
   8 C8             6.9976    -1.2913     1.1045 C.ar    
   9 C9             6.1341    -0.2321     1.3763 C.ar    
  10 C10            6.5916    -2.3207     0.2745 C.ar    
  11 C11            5.3210    -2.3075    -0.2903 C.ar    
  12 C12            4.4613    -1.2492    -0.0017 C.ar    
  13 C13            4.8660    -0.2189     0.8193 C.ar    
  14 O14            4.7373    -3.1998    -1.1409 O.3     
  15 C15            3.1751    -1.5376    -0.7236 C.3     
  16 C16            3.3086    -3.0119    -1.1205 C.3     
  17 N17            1.5176     0.0600    -0.2647 N.3     
  18 C18            1.9468    -1.2944     0.1581 C.3     
  19 C19            2.9637    -0.6458    -1.9137 C.ar    
  20 C20            3.5503    -0.6040    -3.1618 C.ar    
  21 C21            3.1480     0.3387    -4.0893 C.ar    
  22 C22            2.1541     1.2443    -3.7656 C.ar    
  23 C23            1.5653     1.2113    -2.5191 C.ar    
  24 C24            1.9664     0.2672    -1.5765 C.ar    
  25 O25            8.8640     0.6273     3.1407 O.2     
  26 C26           -2.0352     0.4021     2.9381 C.ar    
  27 C27           -3.1786     1.0940     3.3238 C.ar    
  28 C28           -3.5561     1.1195     4.6478 C.ar    
  29 C29           -2.7888     0.4492     5.6046 C.ar    
  30 C30           -1.6405    -0.2450     5.2133 C.ar    
  31 C31           -1.2720    -0.2706     3.8868 C.ar    
  32 C32           -3.1780     0.4739     6.9825 C.1     
  33 N33           -3.4867     0.4935     8.0756 N.1     
  34 H34           -0.4176    -0.6823    -0.6075 H       
  35 H35           -0.2551     1.0858    -0.7326 H       
  36 H36           -2.3323     0.3887     0.9002 H       
  37 H37            7.2649    -3.1384     0.0638 H       
  38 H38            4.1934     0.5997     1.0288 H       
  39 H39            2.8807    -3.1875    -2.1075 H       
  40 H40            2.8437    -3.6572    -0.3752 H       
  41 H41            1.1692    -2.0297    -0.0488 H       
  42 H42            2.2192    -1.3030     1.2135 H       
  43 H43            4.3265    -1.3108    -3.4153 H       
  44 H44            3.6095     0.3682    -5.0653 H       
  45 H45            1.8385     1.9796    -4.4910 H       
  46 H46            0.7892     1.9207    -2.2725 H       
  47 H47           -3.7709     1.6120     2.5840 H       
  48 H48           -4.4439     1.6572     4.9466 H       
  49 H49           -1.0452    -0.7641     5.9499 H       
  50 H50           -0.3873    -0.8105     3.5831 H       
@<TRIPOS>BOND
   1    1    2 1
   2    1    3 2
   3    1    4 am
   4    2   17 1
   5    2   34 1
   6    2   35 1
   7    4   26 1
   8    4   36 1
   9    5    6 1
  10    5    9 1
  11    6    7 1
  12    6   25 2
  13    7    8 1
  14    8    9 ar
  15    8   10 ar
  16    9   13 ar
  17   10   11 ar
  18   10   37 1
  19   11   12 ar
  20   11   14 1
  21   12   13 ar
  22   12   15 1
  23   13   38 1
  24   14   16 1
  25   15   16 1
  26   15   18 1
  27   15   19 1
  28   16   39 1
  29   16   40 1
  30   17   18 1
  31   17   24 1
  32   18   41 1
  33   18   42 1
  34   19   20 ar
  35   19   24 ar
  36   20   21 ar
  37   20   43 1
  38   21   22 ar
  39   21   44 1
  40   22   23 ar
  41   22   45 1
  42   23   24 ar
  43   23   46 1
  44   26   27 ar
  45   26   31 ar
  46   27   28 ar
  47   27   47 1
  48   28   29 ar
  49   28   48 1
  50   29   30 ar
  51   29   32 1
  52   30   31 ar
  53   30   49 1
  54   31   50 1
  55   32   33 3

#	End of record

