#	Name: ASD01208625
#	Creating user name:	WinNT
#	Creation time:	15. 06. 2019 19:10

#	Modifying user name:	WinNT
#	Modification time:	15. 06. 2019 19:10

#	Program:	/corina/corina34_cracker 3.40 0067  02.08.2006

@<TRIPOS>MOLECULE
ASD01208625
  43   45    0    0    0
SMALL
NO_CHARGES


@<TRIPOS>ATOM
   1 C1            -0.0171     1.3834    -0.0024 C.ar    
   2 C2             0.0019    -0.0041    -0.0088 C.ar    
   3 C3             1.2104    -0.6853    -0.0143 C.ar    
   4 C4             2.4039     0.0178    -0.0129 C.ar    
   5 C5             2.3894     1.4128    -0.0064 C.ar    
   6 C6             1.1715     2.0941    -0.0014 C.ar    
   7 O7            -1.2037     2.0459    -0.0027 O.3     
   8 N8             3.7837     3.5281     0.0018 N.pl3   
   9 C9             3.6606     2.1672    -0.0044 C.2     
  10 C10            4.9234     1.6192    -0.0075 C.2     
  11 C11            5.8403     2.6715    -0.0032 C.2     
  12 C12            5.1211     3.8469     0.0026 C.2     
  13 O13            4.9243     6.3201     0.0124 O.3     
  14 C14            5.6850     5.2043     0.0077 C.2     
  15 N15            6.9640     5.4434     0.0086 N.2     
  16 C16            7.1645     6.9055     0.0303 C.3     
  17 C17            5.7600     7.4185     0.4312 C.3     
  18 C18            5.6655     7.6352     1.9429 C.3     
  19 O19            1.2233    -2.0442    -0.0206 O.3     
  20 C20           -0.0378    -2.7056     0.0989 C.3     
  21 C21            0.1728    -4.1033     0.6846 C.3     
  22 C22           -0.6846    -2.8237    -1.2826 C.3     
  23 O23            0.9296    -4.8952    -0.2331 O.3     
  24 H24           -0.9269    -0.5553    -0.0092 H       
  25 H25            3.3443    -0.5133    -0.0164 H       
  26 H26            1.1558     3.1740     0.0033 H       
  27 H27           -1.5497     2.2335     0.8806 H       
  28 H28            3.0502     4.1629     0.0015 H       
  29 H29            5.1615     0.5658    -0.0121 H       
  30 H30            6.9165     2.5811    -0.0042 H       
  31 H31            7.9085     7.1852     0.7761 H       
  32 H32            7.4465     7.2742    -0.9559 H       
  33 H33            5.5076     8.3305    -0.1096 H       
  34 H34            5.9654     6.7238     2.4600 H       
  35 H35            6.3251     8.4524     2.2347 H       
  36 H36            4.6386     7.8838     2.2107 H       
  37 H37           -0.6889    -2.1302     0.7569 H       
  38 H38            0.7132    -4.0243     1.6279 H       
  39 H39           -0.7949    -4.5739     0.8585 H       
  40 H40           -0.0335    -3.3991    -1.9407 H       
  41 H41           -1.6465    -3.3281    -1.1915 H       
  42 H42           -0.8346    -1.8279    -1.6999 H       
  43 H43            1.1014    -5.7961     0.0736 H       
@<TRIPOS>BOND
   1    1    2 ar
   2    1    6 ar
   3    1    7 1
   4    2    3 ar
   5    2   24 1
   6    3    4 ar
   7    3   19 1
   8    4    5 ar
   9    4   25 1
  10    5    6 ar
  11    5    9 1
  12    6   26 1
  13    7   27 1
  14    8    9 1
  15    8   12 1
  16    8   28 1
  17    9   10 2
  18   10   11 1
  19   10   29 1
  20   11   12 2
  21   11   30 1
  22   12   14 1
  23   13   14 1
  24   13   17 1
  25   14   15 2
  26   15   16 1
  27   16   17 1
  28   16   31 1
  29   16   32 1
  30   17   18 1
  31   17   33 1
  32   18   34 1
  33   18   35 1
  34   18   36 1
  35   19   20 1
  36   20   21 1
  37   20   22 1
  38   20   37 1
  39   21   23 1
  40   21   38 1
  41   21   39 1
  42   22   40 1
  43   22   41 1
  44   22   42 1
  45   23   43 1

#	End of record

