#	Name: ASD02038889
#	Creating user name:	WinNT
#	Creation time:	15. 06. 2019 20:17

#	Modifying user name:	WinNT
#	Modification time:	15. 06. 2019 20:17

#	Program:	/corina/corina34_cracker 3.40 0067  02.08.2006

@<TRIPOS>MOLECULE
ASD02038889
  73   75    0    0    0
SMALL
NO_CHARGES


@<TRIPOS>ATOM
   1 C1            -0.3377     1.2579     0.8320 C.2     
   2 N2            -0.2413    -0.0272     0.4375 N.am    
   3 O3             0.6749     1.9071     1.0539 O.co2   
   4 O4            -1.4376     1.7765     0.9633 O.co2   
   5 C5            -2.3226    -0.7279     1.4701 C.2     
   6 C6            -1.4534    -0.8266     0.2429 C.3     
   7 C7            -2.2224    -0.2999    -0.9704 C.3     
   8 C8            -1.3419    -0.4049    -2.2172 C.3     
   9 O9            -1.9647    -0.0560     2.4142 O.2     
  10 O10           -2.5782     1.0668    -0.7523 O.3     
  11 N11           -3.4976    -1.3864     1.5184 N.am    
  12 C12           -4.4389    -1.3777     2.6477 C.3     
  13 C13           -5.6242    -2.2880     2.2632 C.3     
  14 C14           -5.0166    -3.2067     1.1704 C.3     
  15 C15           -4.0548    -2.2295     0.4450 C.3     
  16 C16           -3.7618    -1.9124     3.8833 C.2     
  17 O17           -2.6037    -2.2689     3.8340 O.2     
  18 N18           -4.4434    -1.9944     5.0432 N.am    
  19 C19           -3.9081    -2.4940     6.3181 C.3     
  20 C20           -5.0508    -2.4252     7.3531 C.3     
  21 C21           -6.3236    -2.4221     6.4659 C.3     
  22 C22           -5.8472    -1.5919     5.2451 C.3     
  23 C23           -3.4477    -3.9198     6.1570 C.2     
  24 N24           -2.9189    -4.5798     7.2064 N.am    
  25 O25           -3.5529    -4.4734     5.0830 O.2     
  26 C26           -2.5086    -6.6600     8.3869 C.2     
  27 C27           -2.4712    -5.9660     7.0498 C.3     
  28 C28           -1.0409    -5.9817     6.5068 C.3     
  29 O29           -2.8718    -6.0585     9.3699 O.2     
  30 O30           -0.1585    -5.4063     7.4723 O.3     
  31 O31           -2.1383    -7.9464     8.4860 O.3     
  32 N32           -2.1932    -8.4888     9.6706 N.3     
  33 C33            1.0757    -0.6247     0.2032 C.3     
  34 C34            1.5815    -1.2425     1.4812 C.ar    
  35 C35            1.2911    -2.5621     1.7733 C.ar    
  36 C36            1.7551    -3.1288     2.9456 C.ar    
  37 C37            2.5099    -2.3761     3.8257 C.ar    
  38 C38            2.8011    -1.0568     3.5333 C.ar    
  39 C39            2.3408    -0.4913     2.3589 C.ar    
  40 H40           -1.1788    -1.8680     0.0750 H       
  41 H41           -3.1262    -0.8923    -1.1129 H       
  42 H42           -1.0705    -1.4474    -2.3836 H       
  43 H43           -1.8897    -0.0297    -3.0816 H       
  44 H44           -0.4381     0.1875    -2.0747 H       
  45 H45           -1.8398     1.6847    -0.8428 H       
  46 H46           -4.7937    -0.3627     2.8267 H       
  47 H47           -5.9540    -2.8746     3.1206 H       
  48 H48           -6.4471    -1.6991     1.8580 H       
  49 H49           -4.4708    -4.0375     1.6177 H       
  50 H50           -5.7883    -3.5689     0.4911 H       
  51 H51           -4.6018    -1.6178    -0.2725 H       
  52 H52           -3.2593    -2.7820    -0.0550 H       
  53 H53           -3.0766    -1.8680     6.6418 H       
  54 H54           -5.0357    -3.3002     8.0029 H       
  55 H55           -4.9863    -1.5079     7.9383 H       
  56 H56           -6.5968    -3.4353     6.1710 H       
  57 H57           -7.1522    -1.9278     6.9730 H       
  58 H58           -5.9088    -0.5254     5.4614 H       
  59 H59           -6.4422    -1.8364     4.3652 H       
  60 H60           -2.8347    -4.1371     8.0653 H       
  61 H61           -3.1301    -6.4840     6.3530 H       
  62 H62           -0.7396    -7.0099     6.3065 H       
  63 H63           -0.9963    -5.4037     5.5838 H       
  64 H64            0.7675    -5.3833     7.1945 H       
  65 H65           -3.1193    -8.4073    10.0629 H       
  66 H66           -1.8966    -9.4527     9.6410 H       
  67 H67            0.9943    -1.3939    -0.5648 H       
  68 H68            1.7710     0.1468    -0.1275 H       
  69 H69            0.7014    -3.1502     1.0857 H       
  70 H70            1.5276    -4.1595     3.1741 H       
  71 H71            2.8718    -2.8187     4.7420 H       
  72 H72            3.3905    -0.4686     4.2210 H       
  73 H73            2.5714     0.5383     2.1286 H       
@<TRIPOS>BOND
   1    1    2 am
   2    1    3 ar
   3    1    4 ar
   4    2   33 1
   5    2    6 1
   6    5    9 2
   7    5   11 am
   8    5    6 1
   9    6    7 1
  10    6   40 1
  11    7    8 1
  12    7   10 1
  13    7   41 1
  14    8   42 1
  15    8   43 1
  16    8   44 1
  17   10   45 1
  18   11   12 1
  19   11   15 1
  20   12   13 1
  21   12   16 1
  22   12   46 1
  23   13   14 1
  24   13   47 1
  25   13   48 1
  26   14   15 1
  27   14   49 1
  28   14   50 1
  29   15   51 1
  30   15   52 1
  31   16   17 2
  32   16   18 am
  33   18   19 1
  34   18   22 1
  35   19   20 1
  36   19   23 1
  37   19   53 1
  38   20   21 1
  39   20   54 1
  40   20   55 1
  41   21   22 1
  42   21   56 1
  43   21   57 1
  44   22   58 1
  45   22   59 1
  46   23   24 am
  47   23   25 2
  48   24   27 1
  49   24   60 1
  50   26   27 1
  51   26   29 2
  52   26   31 1
  53   27   28 1
  54   27   61 1
  55   28   30 1
  56   28   62 1
  57   28   63 1
  58   30   64 1
  59   31   32 1
  60   32   65 1
  61   32   66 1
  62   33   34 1
  63   33   67 1
  64   33   68 1
  65   34   35 ar
  66   34   39 ar
  67   35   36 ar
  68   35   69 1
  69   36   37 ar
  70   36   70 1
  71   37   38 ar
  72   37   71 1
  73   38   39 ar
  74   38   72 1
  75   39   73 1

#	End of record

