#	Name: ASD04880436
#	Creating user name:	WinNT
#	Creation time:	15. 06. 2019 20:53

#	Modifying user name:	WinNT
#	Modification time:	15. 06. 2019 20:53

#	Program:	/corina/corina34_cracker 3.40 0067  02.08.2006

@<TRIPOS>MOLECULE
ASD04880436
  47   49    0    0    0
SMALL
NO_CHARGES


@<TRIPOS>ATOM
   1 C1            -0.0144     1.2118     0.0087 C.2     
   2 O2             0.0417    -0.0027     0.0315 O.2     
   3 N3             1.1196     1.9379    -0.0481 N.am    
   4 N4             1.1894     3.3222    -0.1907 N.2     
   5 C5             2.3903     3.7886    -0.2187 C.2     
   6 C6             3.3772     2.6511    -0.0838 C.3     
   7 C7             2.4862     1.3988     0.0367 C.3     
   8 C8             2.7086     0.7044     1.3817 C.3     
   9 C9             2.7574     0.4347    -1.1200 C.3     
  10 C10            2.7470     5.2119    -0.3605 C.ar    
  11 C11            1.7432     6.1775    -0.4773 C.ar    
  12 C12            2.0832     7.5103    -0.6095 C.ar    
  13 C13            3.4241     7.8892    -0.6261 C.ar    
  14 C14            4.4205     6.9314    -0.5106 C.ar    
  15 C15            4.0889     5.5996    -0.3726 C.ar    
  16 O16            3.7565     9.2009    -0.7562 O.3     
  17 C17            5.1495     9.5194    -0.7657 C.3     
  18 O18            1.1090     8.4524    -0.7238 O.3     
  19 C19           -0.2439     7.9929    -0.6996 C.3     
  20 C20           -1.3260     1.8914     0.0371 C.ar    
  21 C21           -2.5036     1.1466    -0.0545 C.ar    
  22 C22           -3.7247     1.7867    -0.0274 C.ar    
  23 C23           -3.7846     3.1653     0.0899 C.ar    
  24 C24           -2.6204     3.9095     0.1807 C.ar    
  25 C25           -1.3933     3.2805     0.1615 C.ar    
  26 Br26          -5.4633     4.0351     0.1256 Br      
  27 H27            4.0121     2.5889    -0.9676 H       
  28 H28            3.9818     2.7740     0.8147 H       
  29 H29            2.0156    -0.1315     1.4780 H       
  30 H30            3.7328     0.3352     1.4351 H       
  31 H31            2.5358     1.4146     2.1903 H       
  32 H32            2.6189     0.9557    -2.0673 H       
  33 H33            3.7814     0.0669    -1.0539 H       
  34 H34            2.0652    -0.4053    -1.0627 H       
  35 H35            0.7043     5.8825    -0.4647 H       
  36 H36            5.4585     7.2294    -0.5243 H       
  37 H37            4.8667     4.8563    -0.2780 H       
  38 H38            5.6329     9.0106    -1.5997 H       
  39 H39            5.2752    10.5966    -0.8750 H       
  40 H40            5.6030     9.1938     0.1705 H       
  41 H41           -0.4074     7.3007    -1.5256 H       
  42 H42           -0.4379     7.4841     0.2446 H       
  43 H43           -0.9183     8.8434    -0.7993 H       
  44 H44           -2.4581     0.0715    -0.1467 H       
  45 H45           -4.6362     1.2118    -0.0982 H       
  46 H46           -2.6736     4.9844     0.2713 H       
  47 H47           -0.4859     3.8620     0.2323 H       
@<TRIPOS>BOND
   1    1    2 2
   2    1    3 am
   3    1   20 1
   4    3    4 1
   5    3    7 1
   6    4    5 2
   7    5    6 1
   8    5   10 1
   9    6    7 1
  10    6   27 1
  11    6   28 1
  12    7    8 1
  13    7    9 1
  14    8   29 1
  15    8   30 1
  16    8   31 1
  17    9   32 1
  18    9   33 1
  19    9   34 1
  20   10   11 ar
  21   10   15 ar
  22   11   12 ar
  23   11   35 1
  24   12   13 ar
  25   12   18 1
  26   13   14 ar
  27   13   16 1
  28   14   15 ar
  29   14   36 1
  30   15   37 1
  31   16   17 1
  32   17   38 1
  33   17   39 1
  34   17   40 1
  35   18   19 1
  36   19   41 1
  37   19   42 1
  38   19   43 1
  39   20   21 ar
  40   20   25 ar
  41   21   22 ar
  42   21   44 1
  43   22   23 ar
  44   22   45 1
  45   23   24 ar
  46   23   26 1
  47   24   25 ar
  48   24   46 1
  49   25   47 1

#	End of record

