#	Name: ASD02030410
#	Creating user name:	WinNT
#	Creation time:	15. 06. 2019 20:15

#	Modifying user name:	WinNT
#	Modification time:	15. 06. 2019 20:15

#	Program:	/corina/corina34_cracker 3.40 0067  02.08.2006

@<TRIPOS>MOLECULE
ASD02030410
  23   23    0    0    0
SMALL
NO_CHARGES


@<TRIPOS>ATOM
   1 C1            -0.0168     1.3852     0.0097 C.ar    
   2 C2             0.0021    -0.0041     0.0020 C.ar    
   3 C3             1.2311    -0.6659    -0.0132 C.ar    
   4 C4             2.3942     0.0980    -0.0202 C.ar    
   5 C5             2.2958     1.4838    -0.0119 C.ar    
   6 N6             1.1174     2.0791     0.0026 N.ar    
   7 C7            -1.3132     2.1004     0.0196 C.2     
   8 O8            -2.3528     1.4729     0.0211 O.2     
   9 O9            -1.3395     3.4469     0.0271 O.3     
  10 O10            3.4255     2.2353    -0.0186 O.3     
  11 C11            3.2605     3.6547    -0.0094 C.3     
  12 N12            1.2917    -2.0567    -0.0208 N.pl3   
  13 C13           -2.6458     4.0808     0.0367 C.3     
  14 H14           -0.9213    -0.5642     0.0082 H       
  15 H15            3.3622    -0.3808    -0.0317 H       
  16 H16            2.6997     3.9610    -0.8924 H       
  17 H17            2.7167     3.9515     0.8874 H       
  18 H18            4.2393     4.1343    -0.0161 H       
  19 H19            0.4736    -2.5778    -0.0155 H       
  20 H20            2.1520    -2.5046    -0.0315 H       
  21 H21           -3.2012     3.7819    -0.8523 H       
  22 H22           -3.1928     3.7722     0.9276 H       
  23 H23           -2.5241     5.1639     0.0420 H       
@<TRIPOS>BOND
   1    1    2 ar
   2    1    6 ar
   3    1    7 1
   4    2    3 ar
   5    2   14 1
   6    3    4 ar
   7    3   12 1
   8    4    5 ar
   9    4   15 1
  10    5    6 ar
  11    5   10 1
  12    7    8 2
  13    7    9 1
  14    9   13 1
  15   10   11 1
  16   11   16 1
  17   11   17 1
  18   11   18 1
  19   12   19 1
  20   12   20 1
  21   13   21 1
  22   13   22 1
  23   13   23 1

#	End of record

