#	Name: ASD00990130
#	Creating user name:	WinNT
#	Creation time:	15. 06. 2019 18:54

#	Modifying user name:	WinNT
#	Modification time:	15. 06. 2019 18:54

#	Program:	/corina/corina34_cracker 3.40 0067  02.08.2006

@<TRIPOS>MOLECULE
ASD00990130
  65   67    0    0    0
SMALL
NO_CHARGES


@<TRIPOS>ATOM
   1 Cl1            0.0000     0.0000     0.0000 Cl      
   2 H2             0.0000     1.3700     0.0000 H       
   3 Cl3            5.0000     6.3700     5.0000 Cl      
   4 H4             5.0000     7.7400     5.0000 H       
   5 O5            16.6034    17.2668    12.7396 O.2     
   6 C6            16.5869    18.4832    12.7463 C.2     
   7 N7            17.7448    19.1729    12.7390 N.am    
   8 C8            19.0233    18.4577    12.7229 C.3     
   9 H9            18.9350    17.5425    13.3083 H       
  10 C10           19.3932    18.1068    11.2804 C.3     
  11 C11           20.7284    17.3599    11.2636 C.3     
  12 C12           21.8176    18.2486    11.8677 C.3     
  13 H13           21.9058    19.1638    11.2823 H       
  14 C14           23.1528    17.5018    11.8509 C.3     
  15 C15           24.2643    18.4331    12.3387 C.3     
  16 N16           25.5463    17.7160    12.3226 N.3     
  17 C17           25.8422    17.1950    10.9786 C.3     
  18 C18           27.3168    16.7947    10.9270 C.3     
  19 C19           27.6513    15.9095    12.1008 C.ar    
  20 C20           28.8170    15.1578    12.0478 C.ar    
  21 C21           29.1693    14.3367    13.0963 C.ar    
  22 C22           28.3464    14.2611    14.2216 C.ar    
  23 C23           27.1756    15.0169    14.2692 C.ar    
  24 C24           26.8307    15.8366    13.2085 C.ar    
  25 C25           25.5504    16.6251    13.3022 C.3     
  26 C26           28.7020    13.4129    15.3192 C.1     
  27 N27           28.9842    12.7400    16.1899 N.1     
  28 C28           21.4476    18.5996    13.3102 C.3     
  29 C29           20.1124    19.3465    13.3270 C.3     
  30 C30           15.3037    19.2010    12.7563 C.2     
  31 C31           14.0757    18.6194    12.7644 C.2     
  32 C32           13.1120    19.6552    12.7734 C.ar    
  33 C33           11.7108    19.6736    12.7834 C.ar    
  34 C34           11.0788    20.8898    12.7898 C.ar    
  35 C35           11.8321    22.0543    12.7862 C.ar    
  36 N36           13.1478    22.0238    12.7767 N.ar    
  37 C37           13.8158    20.8771    12.7702 C.ar    
  38 N38           15.1541    20.5751    12.7650 N.pl3   
  39 H39           15.8778    21.2210    12.7653 H       
  40 H40           17.7316    20.1428    12.7443 H       
  41 H41           18.6173    17.4736    10.8501 H       
  42 H42           19.4815    19.0220    10.6950 H       
  43 H43           20.6402    16.4447    11.8491 H       
  44 H44           20.9920    17.1099    10.2360 H       
  45 H45           23.0918    16.6338    12.5075 H       
  46 H46           23.3731    17.1741    10.8349 H       
  47 H47           24.3252    19.3011    11.6822 H       
  48 H48           24.0440    18.7608    13.3547 H       
  49 H49           25.2190    16.3235    10.7783 H       
  50 H50           25.6463    17.9675    10.2350 H       
  51 H51           27.5133    16.2561    10.0000 H       
  52 H52           27.9364    17.6908    10.9614 H       
  53 H53           29.4530    15.2169    11.1769 H       
  54 H54           30.0774    13.7541    13.0479 H       
  55 H55           26.5351    14.9623    15.1371 H       
  56 H56           25.4572    17.0418    14.3051 H       
  57 H57           24.7058    15.9641    13.1079 H       
  58 H58           21.3593    17.6844    13.8956 H       
  59 H59           22.2235    19.2328    13.7405 H       
  60 H60           20.2006    20.2617    12.7415 H       
  61 H61           19.8488    19.5965    14.3546 H       
  62 H62           13.8722    17.5587    12.7638 H       
  63 H63           11.1441    18.7541    12.7856 H       
  64 H64           10.0000    20.9411    12.7972 H       
  65 H65           11.3270    23.0089    12.7909 H       
@<TRIPOS>BOND
   1    1    2 1
   2    3    4 1
   3    5    6 2
   4    6    7 am
   5    6   30 1
   6    7    8 1
   7    7   40 1
   8    8    9 1
   9    8   29 1
  10    8   10 1
  11   10   11 1
  12   10   41 1
  13   10   42 1
  14   11   12 1
  15   11   43 1
  16   11   44 1
  17   12   13 1
  18   12   14 1
  19   12   28 1
  20   14   15 1
  21   14   45 1
  22   14   46 1
  23   15   16 1
  24   15   47 1
  25   15   48 1
  26   16   25 1
  27   16   17 1
  28   17   18 1
  29   17   49 1
  30   17   50 1
  31   18   19 1
  32   18   51 1
  33   18   52 1
  34   19   24 ar
  35   19   20 ar
  36   20   21 ar
  37   20   53 1
  38   21   22 ar
  39   21   54 1
  40   22   23 ar
  41   22   26 1
  42   23   24 ar
  43   23   55 1
  44   24   25 1
  45   25   56 1
  46   25   57 1
  47   26   27 3
  48   28   29 1
  49   28   58 1
  50   28   59 1
  51   29   60 1
  52   29   61 1
  53   30   38 1
  54   30   31 2
  55   31   32 1
  56   31   62 1
  57   32   37 ar
  58   32   33 ar
  59   33   34 ar
  60   33   63 1
  61   34   35 ar
  62   34   64 1
  63   35   36 ar
  64   35   65 1
  65   36   37 ar
  66   37   38 1
  67   38   39 1

#	End of record

