#	Name: ASD03091122
#	Creating user name:	WinNT
#	Creation time:	15. 06. 2019 20:30

#	Modifying user name:	WinNT
#	Modification time:	15. 06. 2019 20:30

#	Program:	/corina/corina34_cracker 3.40 0067  02.08.2006

@<TRIPOS>MOLECULE
ASD03091122
  76   80    0    0    0
SMALL
NO_CHARGES


@<TRIPOS>ATOM
   1 N1             1.2718     2.9720     1.5982 N.am    
   2 C2             0.5556     1.8246     1.0272 C.3     
   3 C3             1.6037     0.8086     0.5391 C.3     
   4 C4             2.8996     1.2298     1.3037 C.3     
   5 C5             2.7187     2.7577     1.4335 C.3     
   6 N6             1.9760    -0.6864     2.4226 N.3     
   7 C7             1.2768    -0.5745     1.1313 C.3     
   8 C8             2.6811     0.5833     2.6893 C.3     
   9 C9             0.6984     4.0475     2.1733 C.2     
  10 O10           -0.5119     4.1222     2.2508 O.2     
  11 O11            1.4667     5.0393     2.6621 O.3     
  12 N12           -1.5789    -1.8942     6.4757 N.2     
  13 C13           -1.4195    -1.4066     7.6785 C.2     
  14 N14           -0.3839    -0.5783     8.0176 N.am    
  15 C15            0.5396    -0.2233     7.0941 C.2     
  16 C16            0.3809    -0.7607     5.7345 C.ar    
  17 C17            1.2786    -0.4538     4.7146 C.ar    
  18 C18            1.0807    -0.9879     3.4524 C.ar    
  19 C19           -0.0071    -1.8247     3.2024 C.ar    
  20 C20           -0.8957    -2.1337     4.1916 C.ar    
  21 C21           -0.7201    -1.6088     5.4758 C.ar    
  22 C22           -2.4041    -1.7664     8.7206 C.ar    
  23 C23           -3.0678    -0.7663     9.4331 C.ar    
  24 C24           -3.9859    -1.1090    10.4041 C.ar    
  25 C25           -4.2493    -2.4405    10.6723 C.ar    
  26 C26           -3.5946    -3.4368     9.9700 C.ar    
  27 C27           -2.6784    -3.1078     8.9925 C.ar    
  28 O28            1.4665     0.5130     7.3781 O.2     
  29 C29           -0.2747    -0.0726     9.3883 C.3     
  30 C30            0.4316    -1.0916    10.2449 C.2     
  31 O31            0.8069    -2.1372     9.7584 O.2     
  32 N32            0.6462    -0.8409    11.5516 N.am    
  33 C33            1.3329    -1.8315    12.3844 C.3     
  34 C34            1.9945    -1.1290    13.5717 C.3     
  35 C35            0.3196    -2.8562    12.8981 C.3     
  36 C36            0.7811     6.1669     3.2677 C.3     
  37 C37           -0.0596     5.6780     4.4489 C.3     
  38 C38            1.8112     7.1847     3.7616 C.3     
  39 C39           -0.1308     6.8261     2.2310 C.3     
  40 H40           -0.0749     1.3669     1.7895 H       
  41 H41           -0.0583     2.1531     0.1886 H       
  42 H42            1.7233     0.8046    -0.5443 H       
  43 H43            3.8250     0.9371     0.8078 H       
  44 H44            3.0734     3.2571     0.5320 H       
  45 H45            3.2562     3.1279     2.3065 H       
  46 H46            0.2015    -0.6660     1.2844 H       
  47 H47            1.6222    -1.3567     0.4553 H       
  48 H48            3.6396     0.3889     3.1704 H       
  49 H49            2.0680     1.2312     3.3157 H       
  50 H50            2.1204     0.1951     4.9062 H       
  51 H51           -0.1484    -2.2334     2.2127 H       
  52 H52           -1.7334    -2.7825     3.9825 H       
  53 H53           -2.8628     0.2734     9.2249 H       
  54 H54           -4.4999    -0.3362    10.9564 H       
  55 H55           -4.9690    -2.7034    11.4335 H       
  56 H56           -3.8043    -4.4743    10.1848 H       
  57 H57           -2.1716    -3.8864     8.4417 H       
  58 H58            0.2928     0.8580     9.3881 H       
  59 H59           -1.2720     0.1101     9.7886 H       
  60 H60            0.3461    -0.0046    11.9407 H       
  61 H61            2.0943    -2.3389    11.7921 H       
  62 H62            1.2330    -0.6216    14.1640 H       
  63 H63            2.5054    -1.8660    14.1913 H       
  64 H64            2.7164    -0.3989    13.2057 H       
  65 H65           -0.1518    -3.3567    12.0523 H       
  66 H66            0.8304    -3.5933    13.5177 H       
  67 H67           -0.4419    -2.3488    13.4904 H       
  68 H68            0.5900     5.2083     5.1875 H       
  69 H69           -0.5743     6.5244     4.9036 H       
  70 H70           -0.7934     4.9528     4.0971 H       
  71 H71            2.4101     7.5330     2.9201 H       
  72 H72            1.2965     8.0311     4.2162 H       
  73 H73            2.4608     6.7151     4.5002 H       
  74 H74           -0.8646     6.1009     1.8792 H       
  75 H75           -0.6454     7.6725     2.6856 H       
  76 H76            0.4682     7.1744     1.3895 H       
@<TRIPOS>BOND
   1    1    2 1
   2    1    5 1
   3    1    9 am
   4    2    3 1
   5    2   40 1
   6    2   41 1
   7    3    4 1
   8    3    7 1
   9    3   42 1
  10    4    5 1
  11    4    8 1
  12    4   43 1
  13    5   44 1
  14    5   45 1
  15    6    7 1
  16    6    8 1
  17    6   18 1
  18    7   46 1
  19    7   47 1
  20    8   48 1
  21    8   49 1
  22    9   10 2
  23    9   11 1
  24   11   36 1
  25   12   13 2
  26   12   21 1
  27   13   14 1
  28   13   22 1
  29   14   15 am
  30   14   29 1
  31   15   16 1
  32   15   28 2
  33   16   17 ar
  34   16   21 ar
  35   17   18 ar
  36   17   50 1
  37   18   19 ar
  38   19   20 ar
  39   19   51 1
  40   20   21 ar
  41   20   52 1
  42   22   23 ar
  43   22   27 ar
  44   23   24 ar
  45   23   53 1
  46   24   25 ar
  47   24   54 1
  48   25   26 ar
  49   25   55 1
  50   26   27 ar
  51   26   56 1
  52   27   57 1
  53   29   30 1
  54   29   58 1
  55   29   59 1
  56   30   31 2
  57   30   32 am
  58   32   33 1
  59   32   60 1
  60   33   34 1
  61   33   35 1
  62   33   61 1
  63   34   62 1
  64   34   63 1
  65   34   64 1
  66   35   65 1
  67   35   66 1
  68   35   67 1
  69   36   37 1
  70   36   39 1
  71   36   38 1
  72   37   68 1
  73   37   69 1
  74   37   70 1
  75   38   71 1
  76   38   72 1
  77   38   73 1
  78   39   74 1
  79   39   75 1
  80   39   76 1

#	End of record

