#	Name: ASD01813805
#	Creating user name:	WinNT
#	Creation time:	15. 06. 2019 19:31

#	Modifying user name:	WinNT
#	Modification time:	15. 06. 2019 19:31

#	Program:	/corina/corina34_cracker 3.40 0067  02.08.2006

@<TRIPOS>MOLECULE
ASD01813805
  47   50    0    0    0
SMALL
NO_CHARGES


@<TRIPOS>ATOM
   1 C1            -1.2818    -1.0268     0.7963 C.2     
   2 C2            -0.5327    -2.2104     0.8396 C.2     
   3 C3             0.8010    -2.1717     0.5551 C.2     
   4 C4             1.4010    -0.9456     0.2235 C.2     
   5 N5             0.6456     0.1950     0.1893 N.am    
   6 C6            -0.6865     0.1441     0.4751 C.2     
   7 C7             2.7715    -0.9032    -0.0691 C.2     
   8 C8             3.3643     0.2829    -0.3920 C.2     
   9 C9             2.5843     1.4536    -0.4268 C.2     
  10 C10            1.2087     1.3785    -0.1271 C.2     
  11 O11            0.5252     2.3879    -0.1552 O.2     
  12 C12            3.1964     2.7391    -0.7699 C.2     
  13 O13            2.4432     3.8578    -0.8014 O.3     
  14 O14            4.3840     2.7981    -1.0264 O.2     
  15 C15            3.5903    -2.1676    -0.0267 C.3     
  16 N16            3.6771    -2.7403    -1.3767 N.3     
  17 C17            4.4385    -1.8608    -2.2737 C.3     
  18 C18            4.6457    -2.5356    -3.6001 C.2     
  19 N19            4.4905    -3.8523    -3.7740 N.am    
  20 C20            4.0717    -4.7505    -2.7018 C.3     
  21 C21            4.2851    -4.0804    -1.3431 C.3     
  22 O22            4.9669    -1.8576    -4.5531 O.2     
  23 C23            4.7401    -4.3934    -5.0400 C.ar    
  24 C24            3.7118    -4.4969    -5.9676 C.ar    
  25 C25            3.9615    -5.0311    -7.2165 C.ar    
  26 C26            5.2338    -5.4629    -7.5436 C.ar    
  27 C27            6.2599    -5.3612    -6.6222 C.ar    
  28 C28            6.0180    -4.8227    -5.3736 C.ar    
  29 H29           -2.3389    -1.0506     1.0160 H       
  30 H30           -1.0075    -3.1458     1.0964 H       
  31 H31            1.3906    -3.0761     0.5849 H       
  32 H32           -1.2735     1.0502     0.4451 H       
  33 H33            4.4197     0.3226    -0.6178 H       
  34 H34            2.8916     4.6826    -1.0332 H       
  35 H35            4.5924    -1.9395     0.3363 H       
  36 H36            3.1160    -2.8853     0.6427 H       
  37 H37            3.8882    -0.9318    -2.4224 H       
  38 H38            5.4070    -1.6382    -1.8258 H       
  39 H39            3.0158    -4.9920    -2.8240 H       
  40 H40            4.6584    -5.6679    -2.7487 H       
  41 H41            5.3528    -3.9927    -1.1424 H       
  42 H42            3.8121    -4.6768    -0.5629 H       
  43 H43            2.7177    -4.1605    -5.7124 H       
  44 H44            3.1622    -5.1118    -7.9383 H       
  45 H45            5.4264    -5.8809    -8.5207 H       
  46 H46            7.2525    -5.6994    -6.8808 H       
  47 H47            6.8198    -4.7435    -4.6544 H       
@<TRIPOS>BOND
   1    1    2 1
   2    1    6 2
   3    1   29 1
   4    2    3 2
   5    2   30 1
   6    3    4 1
   7    3   31 1
   8    4    5 1
   9    4    7 2
  10    5    6 1
  11    5   10 am
  12    6   32 1
  13    7    8 1
  14    7   15 1
  15    8    9 2
  16    8   33 1
  17    9   10 1
  18    9   12 1
  19   10   11 2
  20   12   13 1
  21   12   14 2
  22   13   34 1
  23   15   16 1
  24   15   35 1
  25   15   36 1
  26   16   17 1
  27   16   21 1
  28   17   18 1
  29   17   37 1
  30   17   38 1
  31   18   19 am
  32   18   22 2
  33   19   20 1
  34   19   23 1
  35   20   21 1
  36   20   39 1
  37   20   40 1
  38   21   41 1
  39   21   42 1
  40   23   24 ar
  41   23   28 ar
  42   24   25 ar
  43   24   43 1
  44   25   26 ar
  45   25   44 1
  46   26   27 ar
  47   26   45 1
  48   27   28 ar
  49   27   46 1
  50   28   47 1

#	End of record

