#	Name: ASD04122049
#	Creating user name:	WinNT
#	Creation time:	15. 06. 2019 20:48

#	Modifying user name:	WinNT
#	Modification time:	15. 06. 2019 20:48

#	Program:	/corina/corina34_cracker 3.40 0067  02.08.2006

@<TRIPOS>MOLECULE
ASD04122049
  54   58    0    0    0
SMALL
NO_CHARGES


@<TRIPOS>ATOM
   1 C1            -0.0435     1.1294    -0.0322 C.ar    
   2 C2            -0.1288    -0.2633    -0.1276 C.ar    
   3 N3            -1.3188    -0.9949    -0.2186 N.pl3   
   4 C4            -2.5069    -0.7476    -0.8386 C.2     
   5 C5            -3.0291     0.4114    -1.4625 C.2     
   6 C6            -2.3879     1.7223    -1.4283 C.3     
   7 S7            -1.5046     2.0891     0.0886 S.3     
   8 C8            -1.3938    -2.2388     0.3615 C.2     
   9 C9            -2.5720    -2.8134     0.0368 C.2     
  10 C10           -3.2904    -1.9016    -0.7281 C.2     
  11 C11            1.1962     1.7545    -0.0041 C.ar    
  12 C12            2.3576     1.0101    -0.0429 C.ar    
  13 C13            2.2832    -0.3697    -0.1106 C.ar    
  14 C14            1.0585    -0.9984    -0.1526 C.ar    
  15 C15           -1.4164     1.8064    -2.5772 C.ar    
  16 C16           -1.4023     0.8187    -3.5442 C.ar    
  17 C17           -0.5111     0.8959    -4.5981 C.ar    
  18 C18            0.3658     1.9611    -4.6852 C.ar    
  19 C19            0.3510     2.9492    -3.7186 C.ar    
  20 C20           -0.5431     2.8743    -2.6671 C.ar    
  21 O21           -4.0787     0.3081    -2.0648 O.2     
  22 C22            1.3380     2.0447    -5.8335 C.3     
  23 S23            0.5755     2.9525    -7.2065 S.3     
  24 C24            1.8389     2.9482    -8.4347 C.ar    
  25 C25            1.6204     3.5651    -9.6615 C.ar    
  26 C26            2.6140     3.5599   -10.6219 C.ar    
  27 C27            3.8238     2.9417   -10.3637 C.ar    
  28 C28            4.0439     2.3268    -9.1446 C.ar    
  29 C29            3.0580     2.3333    -8.1776 C.ar    
  30 C30           -3.4656     2.7894    -1.6301 C.3     
  31 C31           -4.5014     2.6867    -0.5087 C.3     
  32 Cl32           0.1015     4.3403    -9.9865 Cl      
  33 H33           -0.6299    -2.6866     0.9798 H       
  34 H34           -2.8974    -3.8035     0.3201 H       
  35 H35           -4.2699    -2.0550    -1.1564 H       
  36 H36            1.2519     2.8318     0.0482 H       
  37 H37            3.3190     1.5018    -0.0208 H       
  38 H38            3.1896    -0.9565    -0.1310 H       
  39 H39            1.0155    -2.0763    -0.2058 H       
  40 H40           -2.0873    -0.0134    -3.4762 H       
  41 H41           -0.4996     0.1239    -5.3532 H       
  42 H42            1.0363     3.7812    -3.7865 H       
  43 H43           -0.5547     3.6463    -1.9120 H       
  44 H44            2.2391     2.5655    -5.5095 H       
  45 H45            1.5984     1.0389    -6.1632 H       
  46 H46            2.4455     4.0387   -11.5751 H       
  47 H47            4.5986     2.9387   -11.1162 H       
  48 H48            4.9898     1.8444    -8.9470 H       
  49 H49            3.2312     1.8531    -7.2259 H       
  50 H50           -3.0064     3.7777    -1.6111 H       
  51 H51           -3.9548     2.6344    -2.5918 H       
  52 H52           -4.0123     2.8416     0.4530 H       
  53 H53           -5.2692     3.4469    -0.6525 H       
  54 H54           -4.9607     1.6983    -0.5277 H       
@<TRIPOS>BOND
   1    1    2 ar
   2    1   11 ar
   3    1    7 1
   4    2    3 1
   5    2   14 ar
   6    3    8 1
   7    3    4 1
   8    4    5 1
   9    4   10 2
  10    5   21 2
  11    5    6 1
  12    6    7 1
  13    6   15 1
  14    6   30 1
  15    8    9 2
  16    8   33 1
  17    9   10 1
  18    9   34 1
  19   10   35 1
  20   11   12 ar
  21   11   36 1
  22   12   13 ar
  23   12   37 1
  24   13   14 ar
  25   13   38 1
  26   14   39 1
  27   15   16 ar
  28   15   20 ar
  29   16   17 ar
  30   16   40 1
  31   17   18 ar
  32   17   41 1
  33   18   19 ar
  34   18   22 1
  35   19   20 ar
  36   19   42 1
  37   20   43 1
  38   22   23 1
  39   22   44 1
  40   22   45 1
  41   23   24 1
  42   24   25 ar
  43   24   29 ar
  44   25   26 ar
  45   25   32 1
  46   26   27 ar
  47   26   46 1
  48   27   28 ar
  49   27   47 1
  50   28   29 ar
  51   28   48 1
  52   29   49 1
  53   30   31 1
  54   30   50 1
  55   30   51 1
  56   31   52 1
  57   31   53 1
  58   31   54 1

#	End of record

