#	Name: ASD01870088
#	Creating user name:	WinNT
#	Creation time:	15. 06. 2019 19:38

#	Modifying user name:	WinNT
#	Modification time:	15. 06. 2019 19:38

#	Program:	/corina/corina34_cracker 3.40 0067  02.08.2006

@<TRIPOS>MOLECULE
ASD01870088
  49   52    0    0    0
SMALL
NO_CHARGES


@<TRIPOS>ATOM
   1 C1            -0.0173     1.4248     0.0099 C.3     
   2 O2             0.0021    -0.0041     0.0020 O.3     
   3 C3            -1.1985    -0.6365     0.0101 C.ar    
   4 C4            -1.2495    -2.0261     0.0031 C.ar    
   5 C5             0.0279    -2.8255    -0.0134 C.3     
   6 C6            -2.3735     0.1075     0.0311 C.ar    
   7 C7            -3.5935    -0.5285     0.0403 C.ar    
   8 C8            -3.6509    -1.9284     0.0279 C.ar    
   9 C9            -2.4644    -2.6727     0.0117 C.ar    
  10 C10           -4.9495    -2.6125     0.0381 C.2     
  11 C11           -6.0961    -1.8898     0.0595 C.2     
  12 C12           -7.3417    -2.5460     0.0692 C.2     
  13 O13           -7.3889    -3.7597     0.0585 O.2     
  14 C14           -8.6164    -1.7426     0.0930 C.3     
  15 C15           -9.8170    -2.6910     0.0994 C.3     
  16 C16          -11.1112    -1.8753     0.1235 C.3     
  17 C17          -11.1421    -1.0049     1.3814 C.3     
  18 C18           -9.9415    -0.0565     1.3750 C.3     
  19 C19           -8.6473    -0.8722     1.3509 C.3     
  20 C20           -8.6792    -0.8489    -1.1473 C.3     
  21 C21           -9.9734    -0.0332    -1.1232 C.3     
  22 C22          -11.1739    -0.9816    -1.1167 C.3     
  23 C23          -10.0043     0.8372     0.1347 C.3     
  24 H24            1.0053     1.8021     0.0021 H       
  25 H25           -0.5445     1.7859    -0.8732 H       
  26 H26           -0.5275     1.7763     0.9067 H       
  27 H27            0.3457    -3.0237     1.0102 H       
  28 H28           -0.1412    -3.7699    -0.5307 H       
  29 H29            0.8031    -2.2610    -0.5316 H       
  30 H30           -2.3281     1.1865     0.0406 H       
  31 H31           -4.5052     0.0502     0.0573 H       
  32 H32           -2.5029    -3.7520     0.0018 H       
  33 H33           -4.9914    -3.6916     0.0286 H       
  34 H34           -6.0542    -0.8107     0.0690 H       
  35 H35           -9.7950    -3.3111    -0.7968 H       
  36 H36           -9.7723    -3.3277     0.9830 H       
  37 H37          -11.9665    -2.5510     0.1281 H       
  38 H38          -12.0641    -0.4238     1.3986 H       
  39 H39          -11.0974    -1.6416     2.2650 H       
  40 H40           -9.9636     0.5636     2.2711 H       
  41 H41           -8.6026    -1.5089     2.2344 H       
  42 H42           -7.7920    -0.1965     1.3463 H       
  43 H43           -7.8239    -0.1732    -1.1519 H       
  44 H44           -8.6572    -1.4689    -2.0435 H       
  45 H45          -10.0181     0.6035    -2.0068 H       
  46 H46          -11.1519    -1.6017    -2.0129 H       
  47 H47          -12.0960    -0.4005    -1.0996 H       
  48 H48          -10.9263     1.4184     0.1519 H       
  49 H49           -9.1490     1.5129     0.1301 H       
@<TRIPOS>BOND
   1    1    2 1
   2    1   24 1
   3    1   25 1
   4    1   26 1
   5    2    3 1
   6    3    4 ar
   7    3    6 ar
   8    4    5 1
   9    4    9 ar
  10    5   27 1
  11    5   28 1
  12    5   29 1
  13    6    7 ar
  14    6   30 1
  15    7    8 ar
  16    7   31 1
  17    8    9 ar
  18    8   10 1
  19    9   32 1
  20   10   11 2
  21   10   33 1
  22   11   12 1
  23   11   34 1
  24   12   13 2
  25   12   14 1
  26   14   15 1
  27   14   20 1
  28   14   19 1
  29   15   16 1
  30   15   35 1
  31   15   36 1
  32   16   17 1
  33   16   22 1
  34   16   37 1
  35   17   18 1
  36   17   38 1
  37   17   39 1
  38   18   19 1
  39   18   23 1
  40   18   40 1
  41   19   41 1
  42   19   42 1
  43   20   21 1
  44   20   43 1
  45   20   44 1
  46   21   22 1
  47   21   23 1
  48   21   45 1
  49   22   46 1
  50   22   47 1
  51   23   48 1
  52   23   49 1

#	End of record

