#	Name: ASD01914023
#	Creating user name:	WinNT
#	Creation time:	15. 06. 2019 20:02

#	Modifying user name:	WinNT
#	Modification time:	15. 06. 2019 20:02

#	Program:	/corina/corina34_cracker 3.40 0067  02.08.2006

@<TRIPOS>MOLECULE
ASD01914023
  47   48    0    0    0
SMALL
NO_CHARGES


@<TRIPOS>ATOM
   1 C1            -0.0167     1.3804     0.0096 C.ar    
   2 C2             0.0021    -0.0041     0.0020 C.ar    
   3 C3            -1.1867    -0.7138     0.0091 C.ar    
   4 C4            -2.4155     1.3466     0.0439 C.ar    
   5 C5            -1.2239     2.0565     0.0305 C.ar    
   6 O6            -3.6017     2.0093     0.0640 O.3     
   7 C7            -4.7890     1.2142     0.0769 C.3     
   8 C8            -5.9968     2.1151     0.0985 C.ar    
   9 N9            -7.2036     1.5823     0.1129 N.ar    
  10 C10           -8.2914     2.3244     0.1320 C.ar    
  11 C11           -8.2005     3.7166     0.1371 C.ar    
  12 C12           -6.9331     4.3117     0.1221 C.ar    
  13 C13           -5.8219     3.4875     0.1084 C.ar    
  14 C14           -9.4218     4.5495     0.1576 C.2     
  15 N15          -10.6360     3.9648     0.1714 N.am    
  16 O16           -9.3308     5.7616     0.1618 O.2     
  17 C17          -11.8463     4.7901     0.1917 C.3     
  18 C18           -2.3954    -0.0402     0.0238 C.ar    
  19 F19            1.1442     2.0714     0.0023 F       
  20 F20           -1.1666    -2.0647     0.0012 F       
  21 C21          -13.0802     3.8857     0.2044 C.3     
  22 C22          -14.3442     4.7477     0.2255 C.3     
  23 C23          -14.3761     5.6366    -1.0194 C.3     
  24 C24          -15.5781     3.8432     0.2382 C.3     
  25 C25          -14.3421     5.6252     1.4789 C.3     
  26 H26            0.9449    -0.5308    -0.0098 H       
  27 H27           -1.2381     3.1362     0.0462 H       
  28 H28           -4.8176     0.5894    -0.8158 H       
  29 H29           -4.7924     0.5807     0.9639 H       
  30 H30           -9.2621     1.8512     0.1434 H       
  31 H31           -6.8257     5.3863     0.1255 H       
  32 H32           -4.8285     3.9111     0.0966 H       
  33 H33          -10.7087     2.9975     0.1680 H       
  34 H34          -11.8448     5.4153     1.0846 H       
  35 H35          -11.8690     5.4234    -0.6952 H       
  36 H36           -3.3225    -0.5941     0.0290 H       
  37 H37          -13.0817     3.2605    -0.6885 H       
  38 H38          -13.0575     3.2524     1.0912 H       
  39 H39          -14.3776     5.0114    -1.9123 H       
  40 H40          -15.2766     6.2506    -1.0043 H       
  41 H41          -13.4970     6.2809    -1.0284 H       
  42 H42          -15.5553     3.2099     1.1251 H       
  43 H43          -16.4786     4.4573     0.2533 H       
  44 H44          -15.5796     3.2180    -0.6547 H       
  45 H45          -13.4630     6.2695     1.4698 H       
  46 H46          -15.2425     6.2392     1.4939 H       
  47 H47          -14.3193     4.9919     2.3657 H       
@<TRIPOS>BOND
   1    1    2 ar
   2    1   19 1
   3    1    5 ar
   4    2    3 ar
   5    2   26 1
   6    3   18 ar
   7    3   20 1
   8    4    5 ar
   9    4    6 1
  10    4   18 ar
  11    5   27 1
  12    6    7 1
  13    7    8 1
  14    7   28 1
  15    7   29 1
  16    8    9 ar
  17    8   13 ar
  18    9   10 ar
  19   10   11 ar
  20   10   30 1
  21   11   12 ar
  22   11   14 1
  23   12   13 ar
  24   12   31 1
  25   13   32 1
  26   14   15 am
  27   14   16 2
  28   15   17 1
  29   15   33 1
  30   17   21 1
  31   17   34 1
  32   17   35 1
  33   18   36 1
  34   21   22 1
  35   21   37 1
  36   21   38 1
  37   22   23 1
  38   22   24 1
  39   22   25 1
  40   23   39 1
  41   23   40 1
  42   23   41 1
  43   24   42 1
  44   24   43 1
  45   24   44 1
  46   25   45 1
  47   25   46 1
  48   25   47 1

#	End of record

