#	Name: ASD01870147
#	Creating user name:	WinNT
#	Creation time:	15. 06. 2019 19:38

#	Modifying user name:	WinNT
#	Modification time:	15. 06. 2019 19:38

#	Program:	/corina/corina34_cracker 3.40 0067  02.08.2006

@<TRIPOS>MOLECULE
ASD01870147
  44   47    0    0    0
SMALL
NO_CHARGES


@<TRIPOS>ATOM
   1 C1            -0.0254     1.3818     0.2136 C.ar    
   2 C2             0.0110    -0.0124     0.1118 C.ar    
   3 C3             1.1543     2.0926     0.4557 C.ar    
   4 C4             2.3464     1.4179     0.5928 C.ar    
   5 C5             2.3785     0.0310     0.4904 C.ar    
   6 C6             1.2071    -0.6797     0.2501 C.ar    
   7 N7             3.5909    -0.6501     0.6292 N.am    
   8 C8             3.8570    -1.4510     1.6685 C.2     
   9 C9             4.5796    -0.5599    -0.2689 C.2     
  10 C10            5.7422    -1.4165     0.1829 C.3     
  11 C11            5.2473    -2.0268     1.5100 C.3     
  12 O12            4.5482     0.1026    -1.2835 O.2     
  13 O13            3.1038    -1.6784     2.5907 O.2     
  14 C14            5.5334    -2.9269     0.3101 C.3     
  15 C15            4.3327    -3.5359    -0.4167 C.3     
  16 C16            6.7825    -3.8082     0.3717 C.3     
  17 C17           -1.3041     2.1014     0.0600 C.2     
  18 C18           -1.3493     3.5698     0.2191 C.ar    
  19 O19           -2.3207     1.4862    -0.1976 O.2     
  20 C20           -1.8718     4.1332     1.3852 C.ar    
  21 C21           -1.9110     5.5048     1.5271 C.ar    
  22 C22           -1.4342     6.3219     0.5174 C.ar    
  23 C23           -0.9154     5.7703    -0.6411 C.ar    
  24 C24           -0.8643     4.4006    -0.7937 C.ar    
  25 C25           -0.2986     3.8018    -2.0556 C.3     
  26 H26           -0.8980    -0.5649    -0.0748 H       
  27 H27            1.1302     3.1694     0.5346 H       
  28 H28            3.2579     1.9662     0.7797 H       
  29 H29            1.2361    -1.7564     0.1712 H       
  30 H30            6.7473    -1.0115     0.0654 H       
  31 H31            5.8785    -2.0817     2.3969 H       
  32 H32            3.6967    -2.7379    -0.7998 H       
  33 H33            4.6834    -4.1506    -1.2457 H       
  34 H34            3.7626    -4.1532     0.2776 H       
  35 H35            6.7107    -4.4809     1.2263 H       
  36 H36            6.8603    -4.3926    -0.5452 H       
  37 H37            7.6662    -3.1791     0.4777 H       
  38 H38           -2.2447     3.4966     2.1739 H       
  39 H39           -2.3152     5.9419     2.4282 H       
  40 H40           -1.4672     7.3951     0.6337 H       
  41 H41           -0.5455     6.4139    -1.4256 H       
  42 H42            0.7526     3.5578    -1.9025 H       
  43 H43           -0.8493     2.8950    -2.3061 H       
  44 H44           -0.3901     4.5193    -2.8710 H       
@<TRIPOS>BOND
   1    1    2 ar
   2    1    3 ar
   3    1   17 1
   4    2    6 ar
   5    2   26 1
   6    3    4 ar
   7    3   27 1
   8    4    5 ar
   9    4   28 1
  10    5    6 ar
  11    5    7 1
  12    6   29 1
  13    7    8 am
  14    7    9 am
  15    8   13 2
  16    8   11 1
  17    9   12 2
  18    9   10 1
  19   10   11 1
  20   10   14 1
  21   10   30 1
  22   11   14 1
  23   11   31 1
  24   14   15 1
  25   14   16 1
  26   15   32 1
  27   15   33 1
  28   15   34 1
  29   16   35 1
  30   16   36 1
  31   16   37 1
  32   17   18 1
  33   17   19 2
  34   18   20 ar
  35   18   24 ar
  36   20   21 ar
  37   20   38 1
  38   21   22 ar
  39   21   39 1
  40   22   23 ar
  41   22   40 1
  42   23   24 ar
  43   23   41 1
  44   24   25 1
  45   25   42 1
  46   25   43 1
  47   25   44 1

#	End of record

