#	Name: ASD02408064
#	Creating user name:	WinNT
#	Creation time:	15. 06. 2019 20:21

#	Modifying user name:	WinNT
#	Modification time:	15. 06. 2019 20:21

#	Program:	/corina/corina34_cracker 3.40 0067  02.08.2006

@<TRIPOS>MOLECULE
ASD02408064
  37   39    0    0    0
SMALL
NO_CHARGES


@<TRIPOS>ATOM
   1 C1             0.2814     0.9363    -0.0207 C.ar    
   2 C2             0.4447    -0.4294    -0.1523 C.ar    
   3 C3             1.4857     1.8423    -0.0201 C.3     
   4 C4             1.7938     2.2692    -1.4322 C.2     
   5 N5             2.8412     3.0875    -1.6512 N.am    
   6 N6             1.0400     1.8295    -2.4030 N.2     
   7 C7             1.2665     2.1750    -3.6768 C.2     
   8 C8             2.3398     3.0304    -3.9762 C.2     
   9 C9             3.1461     3.4893    -2.9030 C.2     
  10 N10            0.4586     1.6980    -4.6796 N.pl3   
  11 C11           -0.9805     1.4211    -4.5618 C.3     
  12 O12            4.0901     4.2331    -3.1064 O.2     
  13 C13           -0.6621    -1.2617    -0.1527 C.ar    
  14 C14           -1.9311    -0.7241    -0.0213 C.ar    
  15 C15           -2.0919     0.6424     0.1103 C.ar    
  16 C16           -0.9868     1.4726     0.1048 C.ar    
  17 F17           -0.5037    -2.5971    -0.2818 F       
  18 C18           -1.4560     0.8793    -5.9263 C.3     
  19 C19           -0.1456     0.3481    -6.5651 C.3     
  20 C20            0.8893     1.3847    -6.0542 C.3     
  21 C21            2.6151     3.4232    -5.3255 C.1     
  22 N22            2.8335     3.7348    -6.3958 N.1     
  23 H23            1.4351    -0.8477    -0.2551 H       
  24 H24            1.2780     2.7224     0.5884 H       
  25 H25            2.3416     1.3086     0.3930 H       
  26 H26            3.3800     3.3904    -0.9037 H       
  27 H27           -1.1522     0.6746    -3.7863 H       
  28 H28           -1.5161     2.3392    -4.3205 H       
  29 H29           -2.7950    -1.3722    -0.0218 H       
  30 H30           -3.0818     1.0619     0.2128 H       
  31 H31           -1.1134     2.5402     0.2080 H       
  32 H32           -2.1745     0.0708    -5.7911 H       
  33 H33           -1.8833     1.6791    -6.5312 H       
  34 H34            0.0877    -0.6531    -6.2028 H       
  35 H35           -0.2071     0.3637    -7.6532 H       
  36 H36            0.8693     2.2792    -6.6768 H       
  37 H37            1.8888     0.9500    -6.0452 H       
@<TRIPOS>BOND
   1    1    2 ar
   2    1    3 1
   3    1   16 ar
   4    2   13 ar
   5    2   23 1
   6    3    4 1
   7    3   24 1
   8    3   25 1
   9    4    5 1
  10    4    6 2
  11    5    9 am
  12    5   26 1
  13    6    7 1
  14    7    8 2
  15    7   10 1
  16    8    9 1
  17    8   21 1
  18    9   12 2
  19   10   11 1
  20   10   20 1
  21   11   18 1
  22   11   27 1
  23   11   28 1
  24   13   14 ar
  25   13   17 1
  26   14   15 ar
  27   14   29 1
  28   15   16 ar
  29   15   30 1
  30   16   31 1
  31   18   19 1
  32   18   32 1
  33   18   33 1
  34   19   20 1
  35   19   34 1
  36   19   35 1
  37   20   36 1
  38   20   37 1
  39   21   22 3

#	End of record

