#	Name: ASD01910075
#	Creating user name:	WinNT
#	Creation time:	15. 06. 2019 19:55

#	Modifying user name:	WinNT
#	Modification time:	15. 06. 2019 19:55

#	Program:	/corina/corina34_cracker 3.40 0067  02.08.2006

@<TRIPOS>MOLECULE
ASD01910075
  26   27    0    0    0
SMALL
NO_CHARGES


@<TRIPOS>ATOM
   1 C1            -0.0167     1.3787     0.0096 C.ar    
   2 C2             0.0021    -0.0041     0.0020 C.ar    
   3 N3             1.1409    -0.6657    -0.0124 N.ar    
   4 C4             2.3118    -0.0360    -0.0202 C.ar    
   5 C5             2.3655     1.3604    -0.0132 C.ar    
   6 C6             1.1832     2.0775     0.0019 C.ar    
   7 C7             3.5266    -0.7941    -0.0354 C.1     
   8 C8             4.5226    -1.4156    -0.0479 C.1     
   9 C9             5.7373    -2.1736    -0.0630 C.ar    
  10 C10            6.9726    -1.5203    -0.0713 C.ar    
  11 C11            8.1384    -2.2570    -0.0860 C.ar    
  12 C12            8.0870    -3.6399    -0.0930 C.ar    
  13 C13            6.8674    -4.2938    -0.0853 C.ar    
  14 C14            5.6934    -3.5704    -0.0639 C.ar    
  15 C15           -1.2989    -0.7647     0.0109 C.3     
  16 H16           -0.9566     1.9105     0.0170 H       
  17 H17            3.3166     1.8721    -0.0196 H       
  18 H18            1.1929     3.1575     0.0073 H       
  19 H19            7.0143    -0.4411    -0.0666 H       
  20 H20            9.0938    -1.7535    -0.0924 H       
  21 H21            9.0031    -4.2116    -0.1048 H       
  22 H22            6.8350    -5.3733    -0.0916 H       
  23 H23            4.7423    -4.0820    -0.0576 H       
  24 H24           -1.6227    -0.9425    -1.0146 H       
  25 H25           -1.1583    -1.7191     0.5182 H       
  26 H26           -2.0565    -0.1825     0.5354 H       
@<TRIPOS>BOND
   1    1    2 ar
   2    1    6 ar
   3    1   16 1
   4    2    3 ar
   5    2   15 1
   6    3    4 ar
   7    4    5 ar
   8    4    7 1
   9    5    6 ar
  10    5   17 1
  11    6   18 1
  12    7    8 3
  13    8    9 1
  14    9   10 ar
  15    9   14 ar
  16   10   11 ar
  17   10   19 1
  18   11   12 ar
  19   11   20 1
  20   12   13 ar
  21   12   21 1
  22   13   14 ar
  23   13   22 1
  24   14   23 1
  25   15   24 1
  26   15   25 1
  27   15   26 1

#	End of record

