#	Name: ASD01913500
#	Creating user name:	WinNT
#	Creation time:	15. 06. 2019 20:01

#	Modifying user name:	WinNT
#	Modification time:	15. 06. 2019 20:01

#	Program:	/corina/corina34_cracker 3.40 0067  02.08.2006

@<TRIPOS>MOLECULE
ASD01913500
  39   41    0    0    0
SMALL
NO_CHARGES


@<TRIPOS>ATOM
   1 C1             0.7594    -0.1260     1.1954 C.ar    
   2 C2            -0.0636     0.0007     0.0789 C.ar    
   3 C3             0.3153     0.8621    -0.9433 C.ar    
   4 N4             1.4362     1.5503    -0.8611 N.ar    
   5 C5             2.2369     1.4525     0.1823 C.ar    
   6 C6             1.9278     0.6169     1.2392 C.ar    
   7 C7            -1.2122    -2.1160    -0.1207 C.ar    
   8 C8             0.0045    -2.7882    -0.2520 C.ar    
   9 C9             0.0063    -4.1628    -0.3512 C.ar    
  10 N10           -1.1227    -4.8466    -0.3240 N.ar    
  11 C11           -2.2989    -4.2487    -0.2008 C.ar    
  12 C12           -2.3835    -2.8682    -0.0951 C.ar    
  13 N13           -3.4627    -5.0147    -0.1777 N.am    
  14 C14           -3.3984    -6.3447    -0.3863 C.2     
  15 N15           -1.2527    -0.7282    -0.0122 N.pl3   
  16 C16           -4.6413    -7.1390    -0.4804 C.ar    
  17 O17           -2.3181    -6.8910    -0.4970 O.2     
  18 C18           -4.5781    -8.5165    -0.6963 C.ar    
  19 C19           -5.7418    -9.2528    -0.7828 C.ar    
  20 C20           -6.9698    -8.6291    -0.6560 C.ar    
  21 C21           -7.0404    -7.2627    -0.4416 C.ar    
  22 C22           -5.8833    -6.5155    -0.3479 C.ar    
  23 Cl23          -8.5865    -6.4890    -0.2844 Cl      
  24 C24           -2.5418    -0.0323     0.0066 C.3     
  25 H25            0.4910    -0.7838     2.0088 H       
  26 H26           -0.3149     0.9686    -1.8139 H       
  27 H27            3.1469     2.0333     0.2113 H       
  28 H28            2.5900     0.5437     2.0893 H       
  29 H29            0.9332    -2.2374    -0.2759 H       
  30 H30            0.9445    -4.6880    -0.4530 H       
  31 H31           -3.3437    -2.3841     0.0055 H       
  32 H32           -4.3192    -4.5907    -0.0115 H       
  33 H33           -3.6201    -9.0051    -0.7959 H       
  34 H34           -5.6936   -10.3187    -0.9503 H       
  35 H35           -7.8776    -9.2102    -0.7249 H       
  36 H36           -5.9390    -5.4500    -0.1807 H       
  37 H37           -2.8327     0.2212    -1.0128 H       
  38 H38           -3.2980    -0.6802     0.4498 H       
  39 H39           -2.4536     0.8799     0.5968 H       
@<TRIPOS>BOND
   1    1    2 ar
   2    1    6 ar
   3    1   25 1
   4    2    3 ar
   5    2   15 1
   6    3    4 ar
   7    3   26 1
   8    4    5 ar
   9    5    6 ar
  10    5   27 1
  11    6   28 1
  12    7    8 ar
  13    7   12 ar
  14    7   15 1
  15    8    9 ar
  16    8   29 1
  17    9   10 ar
  18    9   30 1
  19   10   11 ar
  20   11   12 ar
  21   11   13 1
  22   12   31 1
  23   13   14 am
  24   13   32 1
  25   14   16 1
  26   14   17 2
  27   15   24 1
  28   16   18 ar
  29   16   22 ar
  30   18   19 ar
  31   18   33 1
  32   19   20 ar
  33   19   34 1
  34   20   21 ar
  35   20   35 1
  36   21   22 ar
  37   21   23 1
  38   22   36 1
  39   24   37 1
  40   24   38 1
  41   24   39 1

#	End of record

