#	Name: ASD00844574
#	Creating user name:	WinNT
#	Creation time:	15. 06. 2019 18:50

#	Modifying user name:	WinNT
#	Modification time:	15. 06. 2019 18:50

#	Program:	/corina/corina34_cracker 3.40 0067  02.08.2006

@<TRIPOS>MOLECULE
ASD00844574
  88   93    0    0    0
SMALL
NO_CHARGES


@<TRIPOS>ATOM
   1 C1             0.8100     1.2326    -0.4179 C.ar    
   2 C2             1.0369    -0.1106    -0.6795 C.ar    
   3 C3             0.9369    -1.0411     0.3450 C.ar    
   4 C4             0.6119    -0.6279     1.6223 C.ar    
   5 C5             0.3857     0.7117     1.8804 C.ar    
   6 C6             0.4851     1.6407     0.8615 C.ar    
   7 C7             1.1823    -2.5012     0.0642 C.3     
   8 C8             0.8792    -3.3354     1.2906 C.2     
   9 C9             0.3370    -2.9668    -1.1230 C.3     
  10 C10           -1.1144    -2.6606    -0.8571 C.2     
  11 N11           -2.0606    -3.0793    -1.7207 N.am    
  12 O12           -1.4309    -2.0374     0.1341 O.2     
  13 C13           -3.4691    -2.6952    -1.5417 C.3     
  14 C14           -3.9879    -2.1180    -2.8630 C.3     
  15 N15           -3.7390    -3.0797    -3.9451 N.3     
  16 C16           -2.3002    -3.3064    -4.1361 C.3     
  17 C17           -1.7113    -3.9273    -2.8704 C.3     
  18 C18           -4.3733    -2.6412    -5.1954 C.3     
  19 C19           -3.9903    -3.5991    -6.3269 C.3     
  20 C20           -4.7024    -3.1726    -7.6127 C.3     
  21 N21           -6.1551    -3.1943    -7.3995 N.3     
  22 C22           -6.5520    -2.2473    -6.3497 C.3     
  23 C23           -5.8951    -2.6461    -5.0262 C.3     
  24 C24           -6.8750    -2.9246    -8.6513 C.3     
  25 O25           -0.1928    -3.4310     1.8499 O.2     
  26 N26            2.0210    -3.9495     1.6436 N.am    
  27 C27            2.6500    -2.7509    -0.1967 C.ar    
  28 C28            3.0790    -3.6281     0.7917 C.ar    
  29 C29            3.5209    -2.2901    -1.1583 C.ar    
  30 C30            4.8431    -2.7015    -1.1473 C.ar    
  31 C31            5.2837    -3.5763    -0.1668 C.ar    
  32 C32            4.4099    -4.0390     0.7985 C.ar    
  33 Cl33           5.9450    -2.1238    -2.3580 Cl      
  34 F34            6.5733    -3.9785    -0.1548 F       
  35 C35            1.8037    -6.5972     2.3627 C.ar    
  36 C36            2.8253    -7.3976     1.8859 C.ar    
  37 C37            0.5058    -7.0731     2.3923 C.ar    
  38 C38            0.2268    -8.3502     1.9454 C.ar    
  39 C39            1.2502    -9.1553     1.4665 C.ar    
  40 C40            2.5515    -8.6752     1.4374 C.ar    
  41 O41            0.9783   -10.4121     1.0267 O.3     
  42 H42            3.8382    -7.0236     1.8638 H       
  43 C43            2.0810   -11.1843     0.5474 C.3     
  44 O44            1.3562    -0.5147    -1.9371 O.3     
  45 C45            1.3761     0.4879    -2.9552 C.3     
  46 C46            1.8311    -0.1356    -4.2762 C.3     
  47 F47            3.0768    -0.7471    -4.0986 F       
  48 F48            0.8964    -1.0921    -4.6867 F       
  49 S49            2.1573    -4.9705     2.9402 S.o2    
  50 O50            3.5288    -4.9661     3.3120 O.2     
  51 O51            1.1084    -4.6255     3.8347 O.2     
  52 H52            0.8916     1.9593    -1.2127 H       
  53 H53            0.5339    -1.3517     2.4200 H       
  54 H54            0.1309     1.0326     2.8796 H       
  55 H55            0.3080     2.6864     1.0656 H       
  56 H56            0.6590    -2.4459    -2.0247 H       
  57 H57            0.4627    -4.0409    -1.2595 H       
  58 H58           -4.0561    -3.5725    -1.2698 H       
  59 H59           -3.5464    -1.9421    -0.7576 H       
  60 H60           -5.0586    -1.9302    -2.7824 H       
  61 H61           -3.4697    -1.1839    -3.0802 H       
  62 H62           -2.1469    -3.9805    -4.9788 H       
  63 H63           -1.8055    -2.3558    -4.3356 H       
  64 H64           -0.6272    -3.9913    -2.9643 H       
  65 H65           -2.1283    -4.9236    -2.7232 H       
  66 H66           -4.0365    -1.6341    -5.4411 H       
  67 H67           -2.9117    -3.5678    -6.4807 H       
  68 H68           -4.2917    -4.6128    -6.0631 H       
  69 H69           -4.3901    -2.1640    -7.8834 H       
  70 H70           -4.4430    -3.8611    -8.4169 H       
  71 H71           -6.2310    -1.2430    -6.6263 H       
  72 H72           -7.6359    -2.2637    -6.2366 H       
  73 H73           -6.2264    -3.6449    -4.7420 H       
  74 H74           -6.1774    -1.9340    -4.2508 H       
  75 H75           -6.6186    -3.6851    -9.3889 H       
  76 H76           -7.9487    -2.9466    -8.4649 H       
  77 H77           -6.5918    -1.9421    -9.0289 H       
  78 H78            3.1731    -1.6088    -1.9207 H       
  79 H79            4.7598    -4.7203     1.5600 H       
  80 H80           -0.2904    -6.4461     2.7655 H       
  81 H81           -0.7870    -8.7216     1.9690 H       
  82 H82            3.3499    -9.3002     1.0654 H       
  83 H83            2.8139   -11.3053     1.3452 H       
  84 H84            1.7266   -12.1643     0.2279 H       
  85 H85            2.5437   -10.6724    -0.2964 H       
  86 H86            0.3758     0.9038    -3.0752 H       
  87 H87            2.0676     1.2810    -2.6706 H       
  88 H88            1.9130     0.6418    -5.0358 H       
@<TRIPOS>BOND
   1    1    2 ar
   2    1    6 ar
   3    1   52 1
   4    2    3 ar
   5    2   44 1
   6    3    4 ar
   7    3    7 1
   8    4    5 ar
   9    4   53 1
  10    5    6 ar
  11    5   54 1
  12    6   55 1
  13    7    8 1
  14    7    9 1
  15    7   27 1
  16    8   25 2
  17    8   26 am
  18    9   10 1
  19    9   56 1
  20    9   57 1
  21   10   11 am
  22   10   12 2
  23   11   13 1
  24   11   17 1
  25   13   14 1
  26   13   58 1
  27   13   59 1
  28   14   15 1
  29   14   60 1
  30   14   61 1
  31   15   16 1
  32   15   18 1
  33   16   17 1
  34   16   62 1
  35   16   63 1
  36   17   64 1
  37   17   65 1
  38   18   19 1
  39   18   23 1
  40   18   66 1
  41   19   20 1
  42   19   67 1
  43   19   68 1
  44   20   21 1
  45   20   69 1
  46   20   70 1
  47   21   22 1
  48   21   24 1
  49   22   23 1
  50   22   71 1
  51   22   72 1
  52   23   73 1
  53   23   74 1
  54   24   75 1
  55   24   76 1
  56   24   77 1
  57   26   49 am
  58   26   28 1
  59   27   28 ar
  60   27   29 ar
  61   28   32 ar
  62   29   30 ar
  63   29   78 1
  64   30   31 ar
  65   30   33 1
  66   31   32 ar
  67   31   34 1
  68   32   79 1
  69   35   36 ar
  70   35   37 ar
  71   35   49 1
  72   36   42 1
  73   36   40 ar
  74   37   38 ar
  75   37   80 1
  76   38   39 ar
  77   38   81 1
  78   39   40 ar
  79   39   41 1
  80   40   82 1
  81   41   43 1
  82   43   83 1
  83   43   84 1
  84   43   85 1
  85   44   45 1
  86   45   46 1
  87   45   86 1
  88   45   87 1
  89   46   47 1
  90   46   48 1
  91   46   88 1
  92   49   50 2
  93   49   51 2

#	End of record

