#	Name: ASD01903160
#	Creating user name:	WinNT
#	Creation time:	15. 06. 2019 19:54

#	Modifying user name:	WinNT
#	Modification time:	15. 06. 2019 19:54

#	Program:	/corina/corina34_cracker 3.40 0067  02.08.2006

@<TRIPOS>MOLECULE
ASD01903160
  44   46    0    0    0
SMALL
NO_CHARGES


@<TRIPOS>ATOM
   1 C1             1.1501    -1.2376     1.6295 C.ar    
   2 C2             1.4144    -2.5156     1.1630 C.ar    
   3 C3             2.6631    -2.8009     0.6334 C.ar    
   4 N4             3.5965    -1.8769     0.5690 N.ar    
   5 C5             3.3842    -0.6409     1.0047 C.ar    
   6 C6             2.1527    -0.2837     1.5486 C.ar    
   7 C7             4.4662     0.3665     0.9120 C.2     
   8 N8             5.6601     0.0267     0.3871 N.am    
   9 O9             4.2773     1.4993     1.3093 O.2     
  10 C10            6.6450     1.0017     0.2011 C.ar    
  11 C11            7.9847     0.6745     0.3564 C.ar    
  12 C12            8.9581     1.6439     0.1712 C.ar    
  13 C13            8.5913     2.9383    -0.1688 C.ar    
  14 C14            7.2566     3.2624    -0.3231 C.ar    
  15 C15            6.2840     2.2981    -0.1451 C.ar    
  16 S16            9.8288     4.1705    -0.4037 S.o2    
  17 O17           10.7834     3.6152    -1.2978 O.2     
  18 O18            9.1403     5.3870    -0.6591 O.2     
  19 N19           10.6051     4.3680     1.0457 N.am    
  20 C20            9.9264     4.9281     2.1313 C.ar    
  21 C21           10.6181     5.6839     3.0705 C.ar    
  22 C22            9.9433     6.2361     4.1428 C.ar    
  23 C23            8.5820     6.0371     4.2814 C.ar    
  24 C24            7.8913     5.2855     3.3485 C.ar    
  25 C25            8.5581     4.7355     2.2713 C.ar    
  26 O26           10.2709     1.3269     0.3229 O.3     
  27 C27           10.5756    -0.0244     0.6740 C.3     
  28 Cl28          12.3273     5.9335     2.8972 Cl      
  29 H29            0.1836    -0.9894     2.0426 H       
  30 H30            0.6549    -3.2819     1.2120 H       
  31 H31            2.8724    -3.7957     0.2689 H       
  32 H32            1.9813     0.7222     1.9024 H       
  33 H33            5.8362    -0.8941     0.1383 H       
  34 H34            8.2683    -0.3333     0.6214 H       
  35 H35            6.9739     4.2707    -0.5874 H       
  36 H36            5.2417     2.5539    -0.2666 H       
  37 H37           11.5310     4.0949     1.1411 H       
  38 H38           10.4798     6.8233     4.8734 H       
  39 H39            8.0570     6.4694     5.1204 H       
  40 H40            6.8280     5.1322     3.4599 H       
  41 H41            8.0177     4.1487     1.5433 H       
  42 H42           11.6555    -0.1419     0.7634 H       
  43 H43           10.1036    -0.2678     1.6259 H       
  44 H44           10.2000    -0.6943    -0.0995 H       
@<TRIPOS>BOND
   1    1    2 ar
   2    1    6 ar
   3    1   29 1
   4    2    3 ar
   5    2   30 1
   6    3    4 ar
   7    3   31 1
   8    4    5 ar
   9    5    6 ar
  10    5    7 1
  11    6   32 1
  12    7    8 am
  13    7    9 2
  14    8   10 1
  15    8   33 1
  16   10   11 ar
  17   10   15 ar
  18   11   12 ar
  19   11   34 1
  20   12   13 ar
  21   12   26 1
  22   13   14 ar
  23   13   16 1
  24   14   15 ar
  25   14   35 1
  26   15   36 1
  27   16   17 2
  28   16   18 2
  29   16   19 am
  30   19   20 1
  31   19   37 1
  32   20   21 ar
  33   20   25 ar
  34   21   22 ar
  35   21   28 1
  36   22   23 ar
  37   22   38 1
  38   23   24 ar
  39   23   39 1
  40   24   25 ar
  41   24   40 1
  42   25   41 1
  43   26   27 1
  44   27   42 1
  45   27   43 1
  46   27   44 1

#	End of record

