#	Name: ASD03730282
#	Creating user name:	WinNT
#	Creation time:	15. 06. 2019 20:44

#	Modifying user name:	WinNT
#	Modification time:	15. 06. 2019 20:44

#	Program:	/corina/corina34_cracker 3.40 0067  02.08.2006

@<TRIPOS>MOLECULE
ASD03730282
  57   62    0    0    0
SMALL
NO_CHARGES


@<TRIPOS>ATOM
   1 O1             1.3877     2.0768    -1.8345 O.3     
   2 C2             1.3676     0.6467    -2.0005 C.3     
   3 O3             2.7546     0.3031    -2.1766 O.3     
   4 C4             3.4575     1.2749    -1.5234 C.ar    
   5 C5             2.6169     2.3658    -1.3147 C.ar    
   6 C6             4.7677     1.3167    -1.0816 C.ar    
   7 C7             5.2561     2.4451    -0.4297 C.ar    
   8 C8             4.4097     3.5325    -0.2353 C.ar    
   9 C9             3.1011     3.4911    -0.6691 C.ar    
  10 O10            6.4929     2.6820     0.0942 O.3     
  11 C11            5.2240     4.5910     0.4592 C.3     
  12 C12            6.6670     4.1001     0.2785 C.3     
  13 N13            4.5867     6.7490     0.8579 N.am    
  14 C14            5.0172     5.9522    -0.1405 C.2     
  15 C15            4.8591     4.7352     1.9066 C.ar    
  16 C16            4.8384     3.8584     2.9826 C.ar    
  17 C17            4.4386     4.3123     4.2392 C.ar    
  18 C18            4.0660     5.6318     4.4033 C.ar    
  19 C19            4.0873     6.5031     3.3333 C.ar    
  20 C20            4.4847     6.0639     2.0715 C.ar    
  21 O21            5.2013     6.2717    -1.2960 O.2     
  22 C22            4.2638     8.1681     0.6902 C.3     
  23 C23            2.7863     8.3149     0.3211 C.3     
  24 C24            2.4491     9.7970     0.1459 C.3     
  25 C25            0.9716     9.9437    -0.2232 C.3     
  26 C26            0.6344    11.4258    -0.3983 C.3     
  27 C27            5.2399     2.4423     2.7962 C.ar    
  28 C28            6.5907     2.1034     2.7031 C.ar    
  29 C29            6.9576     0.7819     2.5300 C.ar    
  30 C30            5.9890    -0.2019     2.4491 C.ar    
  31 C31            4.6493     0.1295     2.5408 C.ar    
  32 C32            4.2706     1.4449     2.7191 C.ar    
  33 F33            7.5370     3.0644     2.7817 F       
  34 H34            0.9634     0.1635    -1.1110 H       
  35 H35            0.7899     0.3716    -2.8829 H       
  36 H36            5.4159     0.4683    -1.2439 H       
  37 H37            2.4524     4.3389    -0.5053 H       
  38 H38            7.2600     4.3047     1.1698 H       
  39 H39            7.1222     4.5520    -0.6028 H       
  40 H40            4.4203     3.6349     5.0801 H       
  41 H41            3.7559     5.9844     5.3758 H       
  42 H42            3.7934     7.5327     3.4745 H       
  43 H43            4.4598     8.6979     1.6224 H       
  44 H44            4.8803     8.5896    -0.1038 H       
  45 H45            2.5904     7.7851    -0.6112 H       
  46 H46            2.1699     7.8934     1.1150 H       
  47 H47            2.6451    10.3268     1.0781 H       
  48 H48            3.0656    10.2185    -0.6481 H       
  49 H49            0.7757     9.4139    -1.1554 H       
  50 H50            0.3552     9.5222     0.5708 H       
  51 H51           -0.4182    11.5303    -0.6613 H       
  52 H52            0.8304    11.9556     0.5339 H       
  53 H53            1.2509    11.8473    -1.1923 H       
  54 H54            8.0022     0.5174     2.4574 H       
  55 H55            6.2799    -1.2331     2.3135 H       
  56 H56            3.8977    -0.6434     2.4770 H       
  57 H57            3.2241     1.7009     2.7946 H       
@<TRIPOS>BOND
   1    1    2 1
   2    1    5 1
   3    2    3 1
   4    2   34 1
   5    2   35 1
   6    3    4 1
   7    4    5 ar
   8    4    6 ar
   9    5    9 ar
  10    6    7 ar
  11    6   36 1
  12    7    8 ar
  13    7   10 1
  14    8    9 ar
  15    8   11 1
  16    9   37 1
  17   10   12 1
  18   11   12 1
  19   11   14 1
  20   11   15 1
  21   12   38 1
  22   12   39 1
  23   13   14 am
  24   13   20 1
  25   13   22 1
  26   14   21 2
  27   15   16 ar
  28   15   20 ar
  29   16   17 ar
  30   16   27 1
  31   17   18 ar
  32   17   40 1
  33   18   19 ar
  34   18   41 1
  35   19   20 ar
  36   19   42 1
  37   22   23 1
  38   22   43 1
  39   22   44 1
  40   23   24 1
  41   23   45 1
  42   23   46 1
  43   24   25 1
  44   24   47 1
  45   24   48 1
  46   25   26 1
  47   25   49 1
  48   25   50 1
  49   26   51 1
  50   26   52 1
  51   26   53 1
  52   27   28 ar
  53   27   32 ar
  54   28   29 ar
  55   28   33 1
  56   29   30 ar
  57   29   54 1
  58   30   31 ar
  59   30   55 1
  60   31   32 ar
  61   31   56 1
  62   32   57 1

#	End of record

