#	Name: ASD02032009
#	Creating user name:	WinNT
#	Creation time:	15. 06. 2019 20:16

#	Modifying user name:	WinNT
#	Modification time:	15. 06. 2019 20:16

#	Program:	/corina/corina34_cracker 3.40 0067  02.08.2006

@<TRIPOS>MOLECULE
ASD02032009
  23   24    0    0    0
SMALL
NO_CHARGES


@<TRIPOS>ATOM
   1 C1            -0.0171     1.4067     0.0098 C.ar    
   2 C2             0.0021    -0.0041     0.0020 C.ar    
   3 C3            -1.1840    -0.7219     0.0090 C.ar    
   4 C4            -2.4063    -0.0360     0.0243 C.ar    
   5 C5            -2.4140     1.3824     0.0325 C.ar    
   6 C6            -1.1996     2.0864     0.0304 C.ar    
   7 C7            -3.6294    -0.7329     0.0312 C.ar    
   8 C8            -4.8013    -0.0415     0.0457 C.ar    
   9 C9            -4.8135     1.3515     0.0539 C.ar    
  10 C10           -3.6485     2.0644     0.0476 C.ar    
  11 O11            1.1533     2.0945     0.0023 O.3     
  12 O12           -3.6786     3.4225     0.0562 O.3     
  13 C13            1.2915    -0.7194    -0.0141 C.2     
  14 O14            2.3332    -0.0940    -0.0207 O.2     
  15 O15            1.3145    -2.0666    -0.0216 O.3     
  16 H16           -1.1663    -1.8017     0.0023 H       
  17 H17           -1.2015     3.1664     0.0366 H       
  18 H18           -3.6376    -1.8128     0.0247 H       
  19 H19           -5.7367    -0.5812     0.0506 H       
  20 H20           -5.7579     1.8753     0.0651 H       
  21 H21            1.4839     2.2985    -0.8832 H       
  22 H22           -3.6792     3.8103     0.9420 H       
  23 H23            2.1834    -2.4908    -0.0321 H       
@<TRIPOS>BOND
   1    1    2 ar
   2    1   11 1
   3    1    6 ar
   4    2    3 ar
   5    2   13 1
   6    3    4 ar
   7    3   16 1
   8    4    5 ar
   9    4    7 ar
  10    5    6 ar
  11    5   10 ar
  12    6   17 1
  13    7    8 ar
  14    7   18 1
  15    8    9 ar
  16    8   19 1
  17    9   10 ar
  18    9   20 1
  19   10   12 1
  20   11   21 1
  21   12   22 1
  22   13   14 2
  23   13   15 1
  24   15   23 1

#	End of record

