#	Name: ASD03092968
#	Creating user name:	WinNT
#	Creation time:	15. 06. 2019 20:33

#	Modifying user name:	WinNT
#	Modification time:	15. 06. 2019 20:33

#	Program:	/corina/corina34_cracker 3.40 0067  02.08.2006

@<TRIPOS>MOLECULE
ASD03092968
  66   69    0    0    0
SMALL
NO_CHARGES


@<TRIPOS>ATOM
   1 O1            -0.0186     1.5178     0.0104 O.3     
   2 S2             0.0021    -0.0041     0.0020 S.o2    
   3 O3             0.5399    -0.3912    -1.2550 O.2     
   4 O4             0.5638    -0.4046     1.2443 O.2     
   5 C5            -1.6737    -0.5485     0.0151 C.ar    
   6 C6            -2.3213    -0.7631     1.2173 C.ar    
   7 C7            -3.6360    -1.1902     1.2276 C.ar    
   8 C8            -4.3031    -1.4023     0.0356 C.ar    
   9 C9            -3.6558    -1.1869    -1.1666 C.ar    
  10 C10           -2.3424    -0.7556    -1.1769 C.ar    
  11 H11            0.8594     1.9231     0.0042 H       
  12 H12           -1.8001    -0.5973     2.1486 H       
  13 H13           -4.1418    -1.3585     2.1669 H       
  14 H14           -5.3300    -1.7367     0.0436 H       
  15 H15           -4.1769    -1.3529    -2.0979 H       
  16 H16           -1.8378    -0.5837    -2.1161 H       
  17 F17           10.8522     7.4208     9.2960 F       
  18 C18           10.8386     8.8197     9.3045 C.3     
  19 H19           11.8624     9.1936     9.3013 H       
  20 C20           10.1035     9.3313     8.0626 C.3     
  21 C21           10.0406    10.8605     8.1102 C.3     
  22 C22            9.3417    11.2976     9.3995 C.3     
  23 N23           10.0834    10.7840    10.5582 N.3     
  24 C24           10.1173     9.3159    10.5598 C.3     
  25 C25            9.5510    11.2713    11.7465 C.ar    
  26 C26           10.1212    10.9027    12.9603 C.ar    
  27 C27            9.5777    11.4147    14.1365 C.ar    
  28 C28           10.1512    11.0530    15.4534 C.2     
  29 O29           10.1615    11.8667    16.3558 O.2     
  30 N30           10.6615     9.8213    15.6509 N.am    
  31 C31           11.3007     9.5160    16.8511 C.ar    
  32 C32           11.7263     8.2149    17.0929 C.ar    
  33 C33           12.3597     7.9249    18.2886 C.ar    
  34 C34           12.5464     8.9514    19.2054 C.ar    
  35 Cl35          13.3357     8.6420    20.7203 Cl      
  36 C36           12.0973    10.2222    18.8984 C.ar    
  37 N37           11.5016    10.4690    17.7477 N.ar    
  38 C38            8.4747    12.2815    14.0489 C.ar    
  39 C39            7.9497    12.8774    15.3292 C.3     
  40 C40            6.4601    13.2011    15.2231 C.3     
  41 O41            6.3226    14.5388    14.7359 O.3     
  42 C42            6.8940    14.7481    13.4478 C.3     
  43 C43            6.7379    13.4510    12.6507 C.3     
  44 C44            7.9541    12.5766    12.8122 C.ar    
  45 N45            8.5114    12.0844    11.7134 N.ar    
  46 H46           10.6389     9.0164     7.1669 H       
  47 H47            9.0920     8.9255     8.0450 H       
  48 H48           11.0517    11.2671     8.0885 H       
  49 H49            9.4811    11.2286     7.2502 H       
  50 H50            9.3080    12.3862     9.4433 H       
  51 H51            8.3260    10.9020     9.4141 H       
  52 H52            9.0981     8.9297    10.5696 H       
  53 H53           10.6470     8.9652    11.4455 H       
  54 H54           10.9680    10.2330    12.9904 H       
  55 H55           10.5839     9.1473    14.9576 H       
  56 H56           11.5644     7.4407    16.3575 H       
  57 H57           12.7008     6.9231    18.5041 H       
  58 H58           12.2400    11.0239    19.6077 H       
  59 H59            8.1034    12.1677    16.1422 H       
  60 H60            8.4990    13.7930    15.5480 H       
  61 H61            5.9821    12.5076    14.5313 H       
  62 H62            5.9956    13.1187    16.2057 H       
  63 H63            6.3719    15.5588    12.9397 H       
  64 H64            7.9510    14.9946    13.5485 H       
  65 H65            5.8594    12.9136    13.0079 H       
  66 H66            6.6063    13.6916    11.5957 H       
@<TRIPOS>BOND
   1    1    2 1
   2    1   11 1
   3    2    3 2
   4    2    4 2
   5    2    5 1
   6    5   10 ar
   7    5    6 ar
   8    6    7 ar
   9    6   12 1
  10    7    8 ar
  11    7   13 1
  12    8    9 ar
  13    8   14 1
  14    9   10 ar
  15    9   15 1
  16   10   16 1
  17   17   18 1
  18   18   19 1
  19   18   24 1
  20   18   20 1
  21   20   21 1
  22   20   46 1
  23   20   47 1
  24   21   22 1
  25   21   48 1
  26   21   49 1
  27   22   23 1
  28   22   50 1
  29   22   51 1
  30   23   24 1
  31   23   25 1
  32   24   52 1
  33   24   53 1
  34   25   45 ar
  35   25   26 ar
  36   26   27 ar
  37   26   54 1
  38   27   28 1
  39   27   38 ar
  40   28   29 2
  41   28   30 am
  42   30   31 1
  43   30   55 1
  44   31   37 ar
  45   31   32 ar
  46   32   33 ar
  47   32   56 1
  48   33   34 ar
  49   33   57 1
  50   34   35 1
  51   34   36 ar
  52   36   37 ar
  53   36   58 1
  54   38   44 ar
  55   38   39 1
  56   39   40 1
  57   39   59 1
  58   39   60 1
  59   40   41 1
  60   40   61 1
  61   40   62 1
  62   41   42 1
  63   42   43 1
  64   42   63 1
  65   42   64 1
  66   43   44 1
  67   43   65 1
  68   43   66 1
  69   44   45 ar

#	End of record

