#	Name: ASD01410627
#	Creating user name:	WinNT
#	Creation time:	15. 06. 2019 19:18

#	Modifying user name:	WinNT
#	Modification time:	15. 06. 2019 19:18

#	Program:	/corina/corina34_cracker 3.40 0067  02.08.2006

@<TRIPOS>MOLECULE
ASD01410627
  71   74    0    0    0
SMALL
NO_CHARGES


@<TRIPOS>ATOM
   1 C1             0.1513    -2.2083     2.3242 C.ar    
   2 C2             0.8985    -2.8690     3.2894 C.ar    
   3 C3             2.2727    -2.9200     3.1621 C.ar    
   4 N4             2.8786    -2.3503     2.1381 N.ar    
   5 C5             2.2010    -1.7117     1.1982 C.ar    
   6 C6             0.8165    -1.6208     1.2620 C.ar    
   7 O7             2.8648    -1.1401     0.1622 O.3     
   8 C8             4.2240    -1.1676     0.1820 C.ar    
   9 C9             4.8948    -2.3735     0.0171 C.ar    
  10 C10            6.2743    -2.4127     0.0355 C.ar    
  11 C11            7.0022    -1.2454     0.2199 C.ar    
  12 C12            6.3309    -0.0246     0.3870 C.ar    
  13 C13            4.9345     0.0054     0.3607 C.ar    
  14 N14            8.3956    -1.2858     0.2393 N.am    
  15 C15            9.0899    -1.1447    -0.9072 C.2     
  16 C16            9.1051    -1.4817     1.5060 C.3     
  17 O17           10.2976    -1.2560    -0.9023 O.2     
  18 C18            8.3657    -0.8484    -2.1951 C.3     
  19 C19            9.2220    -1.3044    -3.3782 C.3     
  20 C20            8.4867    -1.0036    -4.6858 C.3     
  21 C21            8.2297     0.5009    -4.7920 C.3     
  22 C22            7.3735     0.9569    -3.6089 C.3     
  23 C23            8.1088     0.6561    -2.3013 C.3     
  24 C24            7.4944     0.8017    -6.0996 C.3     
  25 C25            9.8809    -2.7725     1.4528 C.ar    
  26 C26           11.1339    -2.8502     2.0316 C.ar    
  27 C27            8.0942    -1.5411     2.6529 C.3     
  28 O28            7.3910    -0.2996     2.7329 O.3     
  29 C29            6.4172    -0.2494     3.7775 C.3     
  30 C30            9.3372    -3.8805     0.8303 C.ar    
  31 C31           10.0488    -5.0646     0.7815 C.ar    
  32 C32           11.3044    -5.1406     1.3549 C.ar    
  33 C33           11.8455    -4.0343     1.9828 C.ar    
  34 C34            0.0488    -0.8924     0.1892 C.3     
  35 F35           -1.3189    -0.9416     0.4793 F       
  36 F36            0.4674     0.4416     0.1403 F       
  37 F37            0.2851    -1.5009    -1.0482 F       
  38 C38            7.0952     1.2203     0.5839 C.2     
  39 O39            8.3098     1.1912     0.6017 O.2     
  40 O40            6.4468     2.3908     0.7440 O.3     
  41 H41           -0.9250    -2.1577     2.3980 H       
  42 H42            0.4106    -3.3378     4.1311 H       
  43 H43            2.8588    -3.4325     3.9106 H       
  44 H44            4.3336    -3.2851    -0.1260 H       
  45 H45            6.7885    -3.3537    -0.0933 H       
  46 H46            4.4108     0.9412     0.4886 H       
  47 H47            9.7920    -0.6514     1.6698 H       
  48 H48            7.4148    -1.3812    -2.2081 H       
  49 H49           10.1728    -0.7716    -3.3652 H       
  50 H50            9.4050    -2.3762    -3.3026 H       
  51 H51            9.0967    -1.3284    -5.5287 H       
  52 H52            7.5358    -1.5364    -4.6988 H       
  53 H53            9.1806     1.0337    -4.7790 H       
  54 H54            7.1904     2.0287    -3.6846 H       
  55 H55            6.4226     0.4241    -3.6219 H       
  56 H56            7.4987     0.9809    -1.4584 H       
  57 H57            9.0596     1.1889    -2.2883 H       
  58 H58            6.5436     0.2689    -6.1126 H       
  59 H59            7.3114     1.8735    -6.1753 H       
  60 H60            8.1045     0.4769    -6.9425 H       
  61 H61           11.5569    -1.9857     2.5215 H       
  62 H62            7.3854    -2.3490     2.4711 H       
  63 H63            8.6190    -1.7224     3.5908 H       
  64 H64            6.9073    -0.4040     4.7388 H       
  65 H65            5.9279     0.7246     3.7716 H       
  66 H66            5.6737    -1.0305     3.6190 H       
  67 H67            8.3563    -3.8212     0.3823 H       
  68 H68            9.6238    -5.9305     0.2957 H       
  69 H69           11.8602    -6.0658     1.3171 H       
  70 H70           12.8264    -4.0936     2.4308 H       
  71 H71            6.9908     3.1803     0.8699 H       
@<TRIPOS>BOND
   1    1    2 ar
   2    1    6 ar
   3    1   41 1
   4    2    3 ar
   5    2   42 1
   6    3    4 ar
   7    3   43 1
   8    4    5 ar
   9    5    6 ar
  10    5    7 1
  11    6   34 1
  12    7    8 1
  13    8    9 ar
  14    8   13 ar
  15    9   10 ar
  16    9   44 1
  17   10   11 ar
  18   10   45 1
  19   11   12 ar
  20   11   14 1
  21   12   13 ar
  22   12   38 1
  23   13   46 1
  24   14   15 am
  25   14   16 1
  26   15   17 2
  27   15   18 1
  28   16   25 1
  29   16   27 1
  30   16   47 1
  31   18   19 1
  32   18   23 1
  33   18   48 1
  34   19   20 1
  35   19   49 1
  36   19   50 1
  37   20   21 1
  38   20   51 1
  39   20   52 1
  40   21   22 1
  41   21   24 1
  42   21   53 1
  43   22   23 1
  44   22   54 1
  45   22   55 1
  46   23   56 1
  47   23   57 1
  48   24   58 1
  49   24   59 1
  50   24   60 1
  51   25   26 ar
  52   25   30 ar
  53   26   33 ar
  54   26   61 1
  55   27   28 1
  56   27   62 1
  57   27   63 1
  58   28   29 1
  59   29   64 1
  60   29   65 1
  61   29   66 1
  62   30   31 ar
  63   30   67 1
  64   31   32 ar
  65   31   68 1
  66   32   33 ar
  67   32   69 1
  68   33   70 1
  69   34   35 1
  70   34   36 1
  71   34   37 1
  72   38   39 2
  73   38   40 1
  74   40   71 1

#	End of record

