#	Name: ASD05720075
#	Creating user name:	WinNT
#	Creation time:	15. 06. 2019 21:01

#	Modifying user name:	WinNT
#	Modification time:	15. 06. 2019 21:01

#	Program:	/corina/corina34_cracker 3.40 0067  02.08.2006

@<TRIPOS>MOLECULE
ASD05720075
  41   42    0    0    0
SMALL
NO_CHARGES


@<TRIPOS>ATOM
   1 N1            -0.0178     1.4650     0.0101 N.am    
   2 C2             0.0021    -0.0041     0.0020 C.3     
   3 C3             0.8803    -0.4916     1.1586 C.3     
   4 C4             2.2627     0.1563     1.0525 C.3     
   5 C5             2.1248     1.6768     1.1584 C.3     
   6 C6             1.2607     2.1889     0.0018 C.3     
   7 C7            -1.1868     2.1359     0.0193 C.2     
   8 O8            -2.2375     1.5256     0.0210 O.2     
   9 O9            -1.1902     3.4822     0.0266 O.3     
  10 O10            5.4096    -0.9883     1.8798 O.3     
  11 C11            4.6344    -2.0780     1.9148 C.2     
  12 N12            3.3324    -1.8115     2.0864 N.am    
  13 C13            3.1537    -0.3549     2.1863 C.3     
  14 C14            4.5838     0.2008     2.0435 C.3     
  15 O15            5.0709    -3.2062     1.8008 O.2     
  16 C16           -2.4856     4.1381     0.0364 C.3     
  17 C17           -3.2605     3.7182     1.2870 C.3     
  18 C18           -2.2890     5.6554     0.0437 C.3     
  19 C19           -3.2723     3.7317    -1.2114 C.3     
  20 H20           -1.0118    -0.3840     0.1278 H       
  21 H21            0.4128    -0.3587    -0.9433 H       
  22 H22            0.4202    -0.2139     2.1069 H       
  23 H23            0.9816    -1.5757     1.1066 H       
  24 H24            2.7120    -0.1016     0.0934 H       
  25 H25            1.6530     1.9341     2.1067 H       
  26 H26            3.1119     2.1361     1.1062 H       
  27 H27            1.7740     2.0131    -0.9436 H       
  28 H28            1.0772     3.2560     0.1274 H       
  29 H29            2.6233    -2.4716     2.1365 H       
  30 H30            2.7311    -0.0865     3.1546 H       
  31 H31            4.8732     0.7463     2.9417 H       
  32 H32            4.6587     0.8419     1.1652 H       
  33 H33           -2.7000     4.0076     2.1759 H       
  34 H34           -4.2329     4.2105     1.2943 H       
  35 H35           -3.4005     2.6372     1.2818 H       
  36 H36           -1.7370     5.9545    -0.8473 H       
  37 H37           -3.2615     6.1477     0.0510 H       
  38 H38           -1.7286     5.9448     0.9326 H       
  39 H39           -3.4124     2.6508    -1.2166 H       
  40 H40           -4.2448     4.2241    -1.2041 H       
  41 H41           -2.7203     4.0309    -2.1024 H       
@<TRIPOS>BOND
   1    1    2 1
   2    1    6 1
   3    1    7 am
   4    2    3 1
   5    2   20 1
   6    2   21 1
   7    3    4 1
   8    3   22 1
   9    3   23 1
  10    4    5 1
  11    4   13 1
  12    4   24 1
  13    5    6 1
  14    5   25 1
  15    5   26 1
  16    6   27 1
  17    6   28 1
  18    7    8 2
  19    7    9 1
  20    9   16 1
  21   10   11 1
  22   10   14 1
  23   11   12 am
  24   11   15 2
  25   12   13 1
  26   12   29 1
  27   13   14 1
  28   13   30 1
  29   14   31 1
  30   14   32 1
  31   16   17 1
  32   16   19 1
  33   16   18 1
  34   17   33 1
  35   17   34 1
  36   17   35 1
  37   18   36 1
  38   18   37 1
  39   18   38 1
  40   19   39 1
  41   19   40 1
  42   19   41 1

#	End of record

