#	Name: ASD00069139
#	Creating user name:	WinNT
#	Creation time:	15. 06. 2019 18:29

#	Modifying user name:	WinNT
#	Modification time:	15. 06. 2019 18:29

#	Program:	/corina/corina34_cracker 3.40 0067  02.08.2006

@<TRIPOS>MOLECULE
ASD00069139
  67   71    0    0    0
SMALL
NO_CHARGES


@<TRIPOS>ATOM
   1 C1            -0.0162     1.3067     0.0436 C.2     
   2 N2            -0.0002    -0.0076     0.0317 N.2     
   3 C3             1.2709    -0.4284     0.0343 C.2     
   4 C4             2.0809     0.6728     0.0484 C.2     
   5 N5             1.2747     1.7577     0.0542 N.pl3   
   6 C6            -1.2235     2.1529     0.0397 C.2     
   7 O7            -1.1171     3.3644     0.0514 O.2     
   8 N8            -2.4451     1.5838     0.0232 N.am    
   9 C9             1.2634    -4.1954     0.0004 C.ar    
  10 C10            0.7978    -2.8869     0.0100 C.ar    
  11 C11            1.7212    -1.8418     0.0242 C.ar    
  12 C12            3.0843    -2.1613     0.0281 C.ar    
  13 C13            3.4640    -3.4856     0.0180 C.ar    
  14 N14            2.5631    -4.4509     0.0046 N.ar    
  15 N15            0.3555    -5.2484    -0.0080 N.pl3   
  16 C16           -1.0837    -4.9747    -0.0066 C.3     
  17 C17           -1.8426    -6.2767    -0.0168 C.ar    
  18 C18           -2.1913    -6.8828     1.1757 C.ar    
  19 C19           -2.8874    -8.0770     1.1664 C.ar    
  20 C20           -3.2352    -8.6649    -0.0354 C.ar    
  21 C21           -2.8874    -8.0584    -1.2278 C.ar    
  22 C22           -2.1951    -6.8619    -1.2185 C.ar    
  23 C23           -3.5906     2.3812     0.1389 C.ar    
  24 C24           -4.7601     2.0260    -0.5319 C.ar    
  25 C25           -5.8924     2.8208    -0.4124 C.ar    
  26 C26           -5.8568     3.9615     0.3709 C.ar    
  27 C27           -4.6960     4.3125     1.0351 C.ar    
  28 C28           -3.5663     3.5234     0.9258 C.ar    
  29 F29           -7.0280     2.4812    -1.0607 F       
  30 N30           -4.7927     0.8713    -1.3241 N.3     
  31 C31           -5.8068    -0.0726    -0.8373 C.3     
  32 C32           -5.7152    -1.3769    -1.6325 C.3     
  33 C33           -5.9386    -1.0801    -3.1179 C.3     
  34 C34           -4.8996    -0.0582    -3.5880 C.3     
  35 C35           -5.0149     1.2079    -2.7361 C.3     
  36 C36           -5.7879    -2.3708    -3.9255 C.3     
  37 N37           -6.1193    -2.1096    -5.3326 N.3     
  38 H38            3.1609     0.6754     0.0544 H       
  39 H39            1.5593     2.6849     0.0641 H       
  40 H40           -2.5310     0.6220    -0.0688 H       
  41 H41           -0.2625    -2.6819     0.0062 H       
  42 H42            3.8290    -1.3792     0.0387 H       
  43 H43            4.5141    -3.7379     0.0209 H       
  44 H44            0.6750    -6.1642    -0.0147 H       
  45 H45           -1.3451    -4.4088     0.8875 H       
  46 H46           -1.3442    -4.3954    -0.8924 H       
  47 H47           -1.9196    -6.4234     2.1146 H       
  48 H48           -3.1592    -8.5509     2.0980 H       
  49 H49           -3.7785    -9.5983    -0.0426 H       
  50 H50           -3.1588    -8.5179    -2.1668 H       
  51 H51           -1.9265    -6.3861    -2.1501 H       
  52 H52           -6.7379     4.5791     0.4633 H       
  53 H53           -4.6731     5.2039     1.6445 H       
  54 H54           -2.6629     3.7987     1.4498 H       
  55 H55           -5.6341    -0.2784     0.2191 H       
  56 H56           -6.7983     0.3618    -0.9651 H       
  57 H57           -4.7286    -1.8190    -1.4940 H       
  58 H58           -6.4784    -2.0715    -1.2814 H       
  59 H59           -6.9398    -0.6741    -3.2618 H       
  60 H60           -3.9002    -0.4795    -3.4803 H       
  61 H61           -5.0801     0.1893    -4.6340 H       
  62 H62           -6.0101     1.6363    -2.8550 H       
  63 H63           -4.2670     1.9321    -3.0588 H       
  64 H64           -4.7599    -2.7261    -3.8543 H       
  65 H65           -6.4627    -3.1290    -3.5280 H       
  66 H66           -6.0274    -2.9474    -5.8873 H       
  67 H67           -7.0453    -1.7182    -5.4194 H       
@<TRIPOS>BOND
   1    1    2 2
   2    1    5 1
   3    1    6 1
   4    2    3 1
   5    3    4 2
   6    3   11 1
   7    4    5 1
   8    4   38 1
   9    5   39 1
  10    6    7 2
  11    6    8 am
  12    8   23 1
  13    8   40 1
  14    9   10 ar
  15    9   14 ar
  16    9   15 1
  17   10   11 ar
  18   10   41 1
  19   11   12 ar
  20   12   13 ar
  21   12   42 1
  22   13   14 ar
  23   13   43 1
  24   15   16 1
  25   15   44 1
  26   16   17 1
  27   16   45 1
  28   16   46 1
  29   17   18 ar
  30   17   22 ar
  31   18   19 ar
  32   18   47 1
  33   19   20 ar
  34   19   48 1
  35   20   21 ar
  36   20   49 1
  37   21   22 ar
  38   21   50 1
  39   22   51 1
  40   23   24 ar
  41   23   28 ar
  42   24   25 ar
  43   24   30 1
  44   25   26 ar
  45   25   29 1
  46   26   27 ar
  47   26   52 1
  48   27   28 ar
  49   27   53 1
  50   28   54 1
  51   30   31 1
  52   30   35 1
  53   31   32 1
  54   31   55 1
  55   31   56 1
  56   32   33 1
  57   32   57 1
  58   32   58 1
  59   33   34 1
  60   33   36 1
  61   33   59 1
  62   34   35 1
  63   34   60 1
  64   34   61 1
  65   35   62 1
  66   35   63 1
  67   36   37 1
  68   36   64 1
  69   36   65 1
  70   37   66 1
  71   37   67 1

#	End of record

