#	Name: ASD01915919
#	Creating user name:	WinNT
#	Creation time:	15. 06. 2019 20:06

#	Modifying user name:	WinNT
#	Modification time:	15. 06. 2019 20:06

#	Program:	/corina/corina34_cracker 3.40 0067  02.08.2006

@<TRIPOS>MOLECULE
ASD01915919
  40   43    0    0    0
SMALL
NO_CHARGES


@<TRIPOS>ATOM
   1 C1            -0.0026     1.4780     0.2370 C.2     
   2 C2             0.0708     0.1234    -0.0267 C.2     
   3 C3            -1.2003    -0.6634    -0.3021 C.3     
   4 C4            -2.3565    -0.0097     0.4522 C.3     
   5 N5            -2.4009     1.4359     0.2673 N.am    
   6 C6            -1.2793     2.1929     0.2816 C.2     
   7 O7            -1.3295     3.4084     0.3289 O.2     
   8 S8             1.6188     2.0844     0.4939 S.3     
   9 C9             2.2543     0.5161     0.2427 C.2     
  10 N10            1.2982    -0.3298    -0.0068 N.2     
  11 C11            4.4805     1.2618     0.5825 C.3     
  12 C12            5.8882     0.7243     0.5997 C.ar    
  13 C13            6.6355     0.7072    -0.5630 C.ar    
  14 C14            6.4337     0.2539     1.7794 C.ar    
  15 C15            7.7271    -0.2394     1.7950 C.ar    
  16 C16            8.4730    -0.2609     0.6284 C.ar    
  17 C17            7.9272     0.2143    -0.5488 C.ar    
  18 O18            3.5686     0.1998     0.2951 O.3     
  19 C19           -4.5720     2.0926     1.0970 C.ar    
  20 C20           -3.6387     2.0584     0.0693 C.ar    
  21 C21           -5.7927     2.7078     0.8997 C.ar    
  22 C22           -6.0863     3.2901    -0.3219 C.ar    
  23 C23           -5.1570     3.2571    -1.3480 C.ar    
  24 C24           -3.9351     2.6430    -1.1549 C.ar    
  25 F25           -7.2810     3.8913    -0.5128 F       
  26 F26            8.2615    -0.6990     2.9475 F       
  27 H27           -1.4106    -0.6551    -1.3716 H       
  28 H28           -1.0754    -1.6908     0.0398 H       
  29 H29           -3.2944    -0.4388     0.0996 H       
  30 H30           -2.2504    -0.2257     1.5153 H       
  31 H31            4.2434     1.6908     1.5560 H       
  32 H32            4.3948     2.0317    -0.1844 H       
  33 H33            6.2099     1.0788    -1.4835 H       
  34 H34            5.8512     0.2715     2.6887 H       
  35 H35            9.4821    -0.6455     0.6394 H       
  36 H36            8.5086     0.1973    -1.4588 H       
  37 H37           -4.3452     1.6347     2.0485 H       
  38 H38           -6.5190     2.7343     1.6986 H       
  39 H39           -5.3882     3.7112    -2.3002 H       
  40 H40           -3.2105     2.6177    -1.9554 H       
@<TRIPOS>BOND
   1    1    2 2
   2    1    8 1
   3    1    6 1
   4    2    3 1
   5    2   10 1
   6    3    4 1
   7    3   27 1
   8    3   28 1
   9    4    5 1
  10    4   29 1
  11    4   30 1
  12    5    6 am
  13    5   20 1
  14    6    7 2
  15    8    9 1
  16    9   10 2
  17    9   18 1
  18   11   12 1
  19   11   18 1
  20   11   31 1
  21   11   32 1
  22   12   13 ar
  23   12   14 ar
  24   13   17 ar
  25   13   33 1
  26   14   15 ar
  27   14   34 1
  28   15   16 ar
  29   15   26 1
  30   16   17 ar
  31   16   35 1
  32   17   36 1
  33   19   21 ar
  34   19   20 ar
  35   19   37 1
  36   20   24 ar
  37   21   22 ar
  38   21   38 1
  39   22   23 ar
  40   22   25 1
  41   23   24 ar
  42   23   39 1
  43   24   40 1

#	End of record

