#	Name: ASD01814726
#	Creating user name:	WinNT
#	Creation time:	15. 06. 2019 19:32

#	Modifying user name:	WinNT
#	Modification time:	15. 06. 2019 19:32

#	Program:	/corina/corina34_cracker 3.40 0067  02.08.2006

@<TRIPOS>MOLECULE
ASD01814726
  56   60    0    0    0
SMALL
NO_CHARGES


@<TRIPOS>ATOM
   1 C1            -0.0184     1.5028     0.0103 C.3     
   2 C2             0.0021    -0.0041     0.0020 C.ar    
   3 C3             0.0056    -0.6804    -1.2030 C.ar    
   4 C4             0.0249    -2.0669    -1.1996 C.ar    
   5 C5             0.0400    -2.7236     0.0212 C.ar    
   6 C6             0.0618    -4.2294     0.0774 C.3     
   7 C7             1.4897    -4.7111     0.0894 C.ar    
   8 C8             2.0965    -5.0634    -1.0729 C.ar    
   9 C9             3.4265    -5.5152    -1.0815 C.ar    
  10 C10            4.0811    -5.9065    -2.3482 C.2     
  11 O11            3.5723    -5.6200    -3.4144 O.2     
  12 N12            5.2450    -6.5820    -2.3121 N.am    
  13 C13            5.7889    -7.0722    -1.0468 C.3     
  14 C14            5.5875    -6.0433     0.0630 C.3     
  15 C15            4.1519    -5.5909     0.0973 C.ar    
  16 C16            3.5403    -5.2403     1.3085 C.ar    
  17 C17            4.2364    -5.3211     2.5275 C.ar    
  18 C18            3.6114    -4.9716     3.6851 C.ar    
  19 C19            2.2884    -4.5348     3.6816 C.ar    
  20 C20            1.5826    -4.4447     2.5206 C.ar    
  21 C21            2.1948    -4.7899     1.3046 C.ar    
  22 C22            5.9760    -6.8294    -3.5573 C.3     
  23 H23            6.8882    -7.3851    -3.3404 H       
  24 C24            5.0974    -7.6404    -4.5148 C.3     
  25 C25            5.8386    -7.8264    -5.8413 C.3     
  26 O26            6.1673    -6.5466    -6.3854 O.3     
  27 C27            7.0257    -5.7624    -5.5546 C.3     
  28 C28            6.3342    -5.4934    -4.2154 C.3     
  29 H29            5.4255    -4.9160    -4.3856 H       
  30 O30            7.2139    -4.7605    -3.3604 O.3     
  31 C31            0.0354    -1.9798     1.1862 C.ar    
  32 N32            0.0219    -0.6619     1.1449 N.ar    
  33 H33            1.0042     1.8801     0.0026 H       
  34 H34           -0.5455     1.8639    -0.8728 H       
  35 H35           -0.5286     1.8543     0.9071 H       
  36 H36           -0.0069    -0.1359    -2.1356 H       
  37 H37            0.0278    -2.6220    -2.1261 H       
  38 H38           -0.4431    -4.5665     0.9827 H       
  39 H39           -0.4505    -4.6330    -0.7960 H       
  40 H40            1.5500    -4.9958    -2.0019 H       
  41 H41            5.2832    -7.9984    -0.7737 H       
  42 H42            6.8546    -7.2677    -1.1660 H       
  43 H43            5.8483    -6.4908     1.0220 H       
  44 H44            6.2327    -5.1840    -0.1197 H       
  45 H45            5.2620    -5.6591     2.5453 H       
  46 H46            4.1486    -5.0342     4.6199 H       
  47 H47            1.8154    -4.2637     4.6139 H       
  48 H48            0.5575    -4.1050     2.5343 H       
  49 H49            4.8848    -8.6155    -4.0765 H       
  50 H50            4.1630    -7.1077    -4.6913 H       
  51 H51            6.7531    -8.3944    -5.6702 H       
  52 H52            5.2009    -8.3662    -6.5414 H       
  53 H53            7.9557    -6.3033    -5.3798 H       
  54 H54            7.2432    -4.8152    -6.0482 H       
  55 H55            7.4824    -3.9020    -3.7151 H       
  56 H56            0.0467    -2.4838     2.1413 H       
@<TRIPOS>BOND
   1    1    2 1
   2    1   33 1
   3    1   34 1
   4    1   35 1
   5    2   32 ar
   6    2    3 ar
   7    3    4 ar
   8    3   36 1
   9    4    5 ar
  10    4   37 1
  11    5    6 1
  12    5   31 ar
  13    6    7 1
  14    6   38 1
  15    6   39 1
  16    7   21 ar
  17    7    8 ar
  18    8    9 ar
  19    8   40 1
  20    9   15 ar
  21    9   10 1
  22   10   11 2
  23   10   12 am
  24   12   13 1
  25   12   22 1
  26   13   14 1
  27   13   41 1
  28   13   42 1
  29   14   15 1
  30   14   43 1
  31   14   44 1
  32   15   16 ar
  33   16   21 ar
  34   16   17 ar
  35   17   18 ar
  36   17   45 1
  37   18   19 ar
  38   18   46 1
  39   19   20 ar
  40   19   47 1
  41   20   21 ar
  42   20   48 1
  43   22   23 1
  44   22   28 1
  45   22   24 1
  46   24   25 1
  47   24   49 1
  48   24   50 1
  49   25   26 1
  50   25   51 1
  51   25   52 1
  52   26   27 1
  53   27   28 1
  54   27   53 1
  55   27   54 1
  56   28   29 1
  57   28   30 1
  58   30   55 1
  59   31   32 ar
  60   31   56 1

#	End of record

