#	Name: ASD08070274
#	Creating user name:	WinNT
#	Creation time:	15. 06. 2019 21:14

#	Modifying user name:	WinNT
#	Modification time:	15. 06. 2019 21:14

#	Program:	/corina/corina34_cracker 3.40 0067  02.08.2006

@<TRIPOS>MOLECULE
ASD08070274
  38   38    0    0    0
SMALL
NO_CHARGES


@<TRIPOS>ATOM
   1 C1            -0.0179     1.4718     0.0101 C.2     
   2 C2             0.0021    -0.0041     0.0020 C.ar    
   3 C3             1.2206    -0.6881    -0.0133 C.ar    
   4 C4             1.2351    -2.0649    -0.0209 C.ar    
   5 C5             0.0396    -2.7744    -0.0138 C.ar    
   6 C6            -1.1742    -2.0979     0.0014 C.ar    
   7 C7            -1.1971    -0.7209     0.0154 C.ar    
   8 O8             1.0266     2.0940     0.0035 O.2     
   9 N9            -1.1942     2.1298     0.0193 N.am    
  10 C10           -2.6000     3.6925    -2.0492 C.3     
  11 C11           -2.5311     4.0901    -0.5734 C.3     
  12 C12           -1.2140     3.5946     0.0273 C.3     
  13 C13           -1.0884     4.0984     1.4665 C.3     
  14 C14            0.2816     3.7091     2.0254 C.3     
  15 C15            2.5485    -2.8035    -0.0374 C.3     
  16 O16            0.0580    -4.1314    -0.0222 O.3     
  17 C17           -1.2062    -4.7974    -0.0142 C.3     
  18 H18            2.1498    -0.1376    -0.0195 H       
  19 H19           -2.1008    -2.6527     0.0069 H       
  20 H20           -2.1407    -0.1959     0.0317 H       
  21 H21           -2.0275     1.6334     0.0205 H       
  22 H22           -1.7642     4.1414    -2.5858 H       
  23 H23           -2.5466     2.6072    -2.1360 H       
  24 H24           -3.5383     4.0455    -2.4771 H       
  25 H25           -2.5844     5.1753    -0.4866 H       
  26 H26           -3.3668     3.6411    -0.0367 H       
  27 H27           -0.3800     3.9725    -0.5640 H       
  28 H28           -1.1922     5.1834     1.4820 H       
  29 H29           -1.8712     3.6498     2.0782 H       
  30 H30            0.3854     2.6242     2.0099 H       
  31 H31            1.0644     4.1578     1.4138 H       
  32 H32            0.3711     4.0681     3.0507 H       
  33 H33            2.8750    -2.9872     0.9862 H       
  34 H34            2.4240    -3.7546    -0.5552 H       
  35 H35            3.2965    -2.2031    -0.5551 H       
  36 H36           -1.7587    -4.5175     0.8828 H       
  37 H37           -1.7756    -4.5067    -0.8970 H       
  38 H38           -1.0488    -5.8759    -0.0222 H       
@<TRIPOS>BOND
   1    1    2 1
   2    1    8 2
   3    1    9 am
   4    2    3 ar
   5    2    7 ar
   6    3    4 ar
   7    3   18 1
   8    4    5 ar
   9    4   15 1
  10    5    6 ar
  11    5   16 1
  12    6    7 ar
  13    6   19 1
  14    7   20 1
  15    9   12 1
  16    9   21 1
  17   10   11 1
  18   10   22 1
  19   10   23 1
  20   10   24 1
  21   11   12 1
  22   11   25 1
  23   11   26 1
  24   12   13 1
  25   12   27 1
  26   13   14 1
  27   13   28 1
  28   13   29 1
  29   14   30 1
  30   14   31 1
  31   14   32 1
  32   15   33 1
  33   15   34 1
  34   15   35 1
  35   16   17 1
  36   17   36 1
  37   17   37 1
  38   17   38 1

#	End of record

