#	Name: ASD01883328
#	Creating user name:	WinNT
#	Creation time:	15. 06. 2019 19:46

#	Modifying user name:	WinNT
#	Modification time:	15. 06. 2019 19:46

#	Program:	/corina/corina34_cracker 3.40 0067  02.08.2006

@<TRIPOS>MOLECULE
ASD01883328
  43   44    0    0    0
SMALL
NO_CHARGES


@<TRIPOS>ATOM
   1 N1            -0.3366     1.8063     0.3807 N.am    
   2 C2            -0.1305     0.5080     0.0914 C.2     
   3 C3            -1.2338    -0.3703    -0.0356 C.2     
   4 C4            -2.5270     0.1414     0.1454 C.2     
   5 C5            -2.6788     1.5051     0.4457 C.2     
   6 C6            -1.5894     2.2978     0.5609 C.2     
   7 O7             1.0043     0.0890    -0.0615 O.2     
   8 C8            -1.0331    -1.7543    -0.3435 C.1     
   9 N9            -0.8739    -2.8523    -0.5877 N.1     
  10 O10           -3.6077    -0.6632     0.0325 O.3     
  11 C11           -4.4658    -0.4386    -0.9979 C.ar    
  12 C12            0.8132     2.7050     0.5095 C.3     
  13 C13            1.1355     3.3194    -0.8542 C.3     
  14 C14            2.3363     4.2580    -0.7197 C.3     
  15 C15            2.7366     4.7754    -2.1028 C.3     
  16 C16            1.9624     5.4391     0.1781 C.3     
  17 C17           -5.6469    -1.1610    -1.0871 C.ar    
  18 C18           -6.5185    -0.9327    -2.1339 C.ar    
  19 C19           -6.2130     0.0188    -3.0959 C.ar    
  20 C20           -5.0322     0.7411    -3.0067 C.ar    
  21 C21           -4.1632     0.5171    -1.9569 C.ar    
  22 O22           -7.0710     0.2431    -4.1266 O.3     
  23 C23           -6.6928     1.2373    -5.0808 C.3     
  24 H24           -3.6657     1.9198     0.5887 H       
  25 H25           -1.7188     3.3447     0.7925 H       
  26 H26            0.5766     3.4983     1.2186 H       
  27 H27            1.6755     2.1428     0.8676 H       
  28 H28            1.3721     2.5261    -1.5633 H       
  29 H29            0.2732     3.8817    -1.2124 H       
  30 H30            3.1730     3.7166    -0.2782 H       
  31 H31            1.8999     5.3169    -2.5443 H       
  32 H32            3.5921     5.4441    -2.0069 H       
  33 H33            3.0030     3.9340    -2.7424 H       
  34 H34            1.1257     5.9805    -0.2634 H       
  35 H35            1.6772     5.0704     1.1635 H       
  36 H36            2.8179     6.1077     0.2740 H       
  37 H37           -5.8845    -1.9020    -0.3383 H       
  38 H38           -7.4377    -1.4953    -2.2036 H       
  39 H39           -4.7945     1.4819    -3.7558 H       
  40 H40           -3.2438     1.0795    -1.8875 H       
  41 H41           -6.5803     2.1983    -4.5790 H       
  42 H42           -5.7467     0.9559    -5.5432 H       
  43 H43           -7.4630     1.3160    -5.8481 H       
@<TRIPOS>BOND
   1    1    2 am
   2    1   12 1
   3    1    6 1
   4    2    3 1
   5    2    7 2
   6    3    4 2
   7    3    8 1
   8    4    5 1
   9    4   10 1
  10    5    6 2
  11    5   24 1
  12    6   25 1
  13    8    9 3
  14   10   11 1
  15   11   17 ar
  16   11   21 ar
  17   12   13 1
  18   12   26 1
  19   12   27 1
  20   13   14 1
  21   13   28 1
  22   13   29 1
  23   14   15 1
  24   14   16 1
  25   14   30 1
  26   15   31 1
  27   15   32 1
  28   15   33 1
  29   16   34 1
  30   16   35 1
  31   16   36 1
  32   17   18 ar
  33   17   37 1
  34   18   19 ar
  35   18   38 1
  36   19   20 ar
  37   19   22 1
  38   20   21 ar
  39   20   39 1
  40   21   40 1
  41   22   23 1
  42   23   41 1
  43   23   42 1
  44   23   43 1

#	End of record

