#	Name: ASD01913765
#	Creating user name:	WinNT
#	Creation time:	15. 06. 2019 20:02

#	Modifying user name:	WinNT
#	Modification time:	15. 06. 2019 20:02

#	Program:	/corina/corina34_cracker 3.40 0067  02.08.2006

@<TRIPOS>MOLECULE
ASD01913765
  51   53    0    0    0
SMALL
NO_CHARGES


@<TRIPOS>ATOM
   1 O1            -0.0163     1.3508     0.0095 O.3     
   2 C2             0.0021    -0.0041     0.0020 C.ar    
   3 N3             1.1629    -0.6408    -0.0125 N.ar    
   4 C4             1.2330    -1.9556    -0.0202 C.ar    
   5 C5             0.0719    -2.7293    -0.0137 C.ar    
   6 C6            -1.1744    -2.0856     0.0016 C.ar    
   7 C7            -1.1994    -0.7064     0.0154 C.ar    
   8 C8             0.1538    -4.2032    -0.0234 C.2     
   9 N9             1.3565    -4.8112    -0.0386 N.am    
  10 O10           -0.8637    -4.8686    -0.0177 O.2     
  11 C11            1.2480     2.0168     0.0010 C.3     
  12 C12            1.0303     3.5079     0.0111 C.ar    
  13 C13            0.9419     4.1851     1.2128 C.ar    
  14 C14            0.7418     5.5532     1.2236 C.ar    
  15 C15            0.6298     6.2450     0.0328 C.ar    
  16 C16            0.7186     5.5677    -1.1718 C.ar    
  17 C17            0.9247     4.1988    -1.1815 C.ar    
  18 C18            1.4378    -6.2739    -0.0482 C.3     
  19 F19            0.6093     6.2431    -2.3368 F       
  20 C20            2.7655    -6.7069    -0.6732 C.3     
  21 C21            1.3543    -6.7988     1.3865 C.3     
  22 C22            2.7963    -6.2901    -2.1450 C.3     
  23 C23            4.1764    -6.6019    -2.7751 C.3     
  24 C24            3.8846    -6.7216    -4.2852 C.3     
  25 C25            2.3940    -7.0799    -4.4178 C.3     
  26 C26            1.8321    -7.1654    -2.9837 C.3     
  27 F27            1.7239    -6.0841    -5.1364 F       
  28 F28            2.2532    -8.3136    -5.0621 F       
  29 H29            2.1983    -2.4397    -0.0320 H       
  30 H30           -2.0916    -2.6557     0.0069 H       
  31 H31           -2.1409    -0.1774     0.0278 H       
  32 H32            2.1684    -4.2803    -0.0432 H       
  33 H33            1.8174     1.7267     0.8840 H       
  34 H34            1.8004     1.7363    -0.8958 H       
  35 H35            1.0289     3.6451     2.1441 H       
  36 H36            0.6725     6.0812     2.1632 H       
  37 H37            0.4728     7.3135     0.0415 H       
  38 H38            0.9941     3.6695    -2.1203 H       
  39 H39            0.6118    -6.6799    -0.6322 H       
  40 H40            3.5895    -6.2293    -0.1431 H       
  41 H41            2.8655    -7.7898    -0.6001 H       
  42 H42            2.1803    -6.3928     1.9705 H       
  43 H43            0.4085    -6.4903     1.8318 H       
  44 H44            1.4148    -7.8871     1.3794 H       
  45 H45            2.5534    -5.2328    -2.2507 H       
  46 H46            4.8754    -5.7874    -2.5850 H       
  47 H47            4.5695    -7.5415    -2.3869 H       
  48 H48            4.0859    -5.7718    -4.7808 H       
  49 H49            4.4983    -7.5090    -4.7228 H       
  50 H50            1.8466    -8.1960    -2.6291 H       
  51 H51            0.8202    -6.7621    -2.9457 H       
@<TRIPOS>BOND
   1    1    2 1
   2    1   11 1
   3    2    3 ar
   4    2    7 ar
   5    3    4 ar
   6    4    5 ar
   7    4   29 1
   8    5    6 ar
   9    5    8 1
  10    6    7 ar
  11    6   30 1
  12    7   31 1
  13    8    9 am
  14    8   10 2
  15    9   18 1
  16    9   32 1
  17   11   12 1
  18   11   33 1
  19   11   34 1
  20   12   13 ar
  21   12   17 ar
  22   13   14 ar
  23   13   35 1
  24   14   15 ar
  25   14   36 1
  26   15   16 ar
  27   15   37 1
  28   16   17 ar
  29   16   19 1
  30   17   38 1
  31   18   20 1
  32   18   21 1
  33   18   39 1
  34   20   22 1
  35   20   40 1
  36   20   41 1
  37   21   42 1
  38   21   43 1
  39   21   44 1
  40   22   23 1
  41   22   26 1
  42   22   45 1
  43   23   24 1
  44   23   46 1
  45   23   47 1
  46   24   25 1
  47   24   48 1
  48   24   49 1
  49   25   26 1
  50   25   27 1
  51   25   28 1
  52   26   50 1
  53   26   51 1

#	End of record

