#	Name: ASD03092315
#	Creating user name:	WinNT
#	Creation time:	15. 06. 2019 20:32

#	Modifying user name:	WinNT
#	Modification time:	15. 06. 2019 20:32

#	Program:	/corina/corina34_cracker 3.40 0067  02.08.2006

@<TRIPOS>MOLECULE
ASD03092315
  65   68    0    0    0
SMALL
NO_CHARGES


@<TRIPOS>ATOM
   1 C1            -0.1264     1.4451     0.0194 C.2     
   2 C2            -0.1631    -0.0329     0.0254 C.ar    
   3 C3             1.0110    -0.7640    -0.1634 C.ar    
   4 C4             0.9700    -2.1427    -0.1562 C.ar    
   5 C5            -0.2317    -2.8012     0.0371 C.ar    
   6 C6            -1.3988    -2.0827     0.2248 C.ar    
   7 C7            -1.3706    -0.7031     0.2256 C.ar    
   8 O8             0.9390     2.0264    -0.0480 O.2     
   9 N9            -1.2746     2.1480     0.0831 N.am    
  10 C10           -0.2691    -4.3077     0.0427 C.3     
  11 C11            2.3204    -0.0486    -0.3750 C.3     
  12 C12           -1.2383     3.6125     0.0772 C.3     
  13 S13           -4.9306     5.0761    -0.3948 S.3     
  14 C14           -4.4919     4.7838     1.2313 C.2     
  15 N15           -3.2832     4.3116     1.2941 N.2     
  16 C16           -2.6439     4.1502     0.1560 C.2     
  17 C17           -3.3534     4.5068    -0.9352 C.2     
  18 C18           -2.5939     5.4093    -4.5007 C.ar    
  19 C19           -3.0420     5.5222    -3.2024 C.ar    
  20 C20           -2.8899     4.4326    -2.3345 C.ar    
  21 C21           -2.2849     3.2707    -2.8322 C.ar    
  22 C22           -1.8668     3.2455    -4.1451 C.ar    
  23 N23           -2.0292     4.2954    -4.9288 N.ar    
  24 C24           -1.2146     2.0026    -4.6935 C.3     
  25 C25           -2.7568     6.5711    -5.4467 C.3     
  26 N26           -5.3070     5.0171     2.3240 N.3     
  27 C27           -6.6102     5.5526     1.9043 C.3     
  28 C28           -7.4564     5.8516     3.1447 C.3     
  29 O29           -7.5865     4.6605     3.9254 O.3     
  30 C30           -6.3363     4.1121     4.3516 C.3     
  31 C31           -5.4788     3.7954     3.1235 C.3     
  32 C32           -6.5857     2.8281     5.1454 C.3     
  33 C33           -8.8429     6.3337     2.7132 C.3     
  34 H34            1.8776    -2.7096    -0.3021 H       
  35 H35           -2.3334    -2.6026     0.3751 H       
  36 H36           -2.2818    -0.1433     0.3763 H       
  37 H37           -2.1251     1.6841     0.1328 H       
  38 H38           -0.1148    -4.6712     1.0587 H       
  39 H39           -1.2382    -4.6485    -0.3218 H       
  40 H40            0.5186    -4.6932    -0.6047 H       
  41 H41            2.7404     0.2338     0.5904 H       
  42 H42            3.0152    -0.7085    -0.8945 H       
  43 H43            2.1527     0.8465    -0.9740 H       
  44 H44           -0.6658     3.9652     0.9350 H       
  45 H45           -0.7672     3.9605    -0.8421 H       
  46 H46           -3.5027     6.4366    -2.8590 H       
  47 H47           -2.1481     2.4083    -2.1966 H       
  48 H48           -1.9777     1.3464    -5.1120 H       
  49 H49           -0.5051     2.2785    -5.4736 H       
  50 H50           -0.6893     1.4838    -3.8916 H       
  51 H51           -1.8774     7.2125    -5.3891 H       
  52 H52           -2.8682     6.1978    -6.4647 H       
  53 H53           -3.6425     7.1431    -5.1704 H       
  54 H54           -6.4606     6.4705     1.3358 H       
  55 H55           -7.1224     4.8181     1.2827 H       
  56 H56           -6.9701     6.6251     3.7391 H       
  57 H57           -5.8175     4.8350     4.9812 H       
  58 H58           -5.9729     3.0329     2.5214 H       
  59 H59           -4.5033     3.4306     3.4450 H       
  60 H60           -7.1028     2.1054     4.5143 H       
  61 H61           -5.6326     2.4106     5.4700 H       
  62 H62           -7.1995     3.0536     6.0176 H       
  63 H63           -9.3288     5.5587     2.1205 H       
  64 H64           -9.4448     6.5464     3.5967 H       
  65 H65           -8.7428     7.2394     2.1150 H       
@<TRIPOS>BOND
   1    1    2 1
   2    1    8 2
   3    1    9 am
   4    2    3 ar
   5    2    7 ar
   6    3    4 ar
   7    3   11 1
   8    4    5 ar
   9    4   34 1
  10    5    6 ar
  11    5   10 1
  12    6    7 ar
  13    6   35 1
  14    7   36 1
  15    9   12 1
  16    9   37 1
  17   10   38 1
  18   10   39 1
  19   10   40 1
  20   11   41 1
  21   11   42 1
  22   11   43 1
  23   12   16 1
  24   12   44 1
  25   12   45 1
  26   13   14 1
  27   13   17 1
  28   14   15 2
  29   14   26 1
  30   15   16 1
  31   16   17 2
  32   17   20 1
  33   18   19 ar
  34   18   23 ar
  35   18   25 1
  36   19   20 ar
  37   19   46 1
  38   20   21 ar
  39   21   22 ar
  40   21   47 1
  41   22   23 ar
  42   22   24 1
  43   24   48 1
  44   24   49 1
  45   24   50 1
  46   25   51 1
  47   25   52 1
  48   25   53 1
  49   26   27 1
  50   26   31 1
  51   27   28 1
  52   27   54 1
  53   27   55 1
  54   28   29 1
  55   28   33 1
  56   28   56 1
  57   29   30 1
  58   30   31 1
  59   30   32 1
  60   30   57 1
  61   31   58 1
  62   31   59 1
  63   32   60 1
  64   32   61 1
  65   32   62 1
  66   33   63 1
  67   33   64 1
  68   33   65 1

#	End of record

