#	Name: ASD05430079
#	Creating user name:	WinNT
#	Creation time:	15. 06. 2019 20:59

#	Modifying user name:	WinNT
#	Modification time:	15. 06. 2019 20:59

#	Program:	/corina/corina34_cracker 3.40 0067  02.08.2006

@<TRIPOS>MOLECULE
ASD05430079
  57   63    0    0    0
SMALL
NO_CHARGES


@<TRIPOS>ATOM
   1 C1             0.0640     1.1608     0.4275 C.ar    
   2 C2             0.0201    -0.0132    -0.3262 C.ar    
   3 C3             1.1603    -0.4732    -0.9671 C.ar    
   4 C4             2.3521     0.2184    -0.8707 C.ar    
   5 C5             2.4235     1.3944    -0.1233 C.ar    
   6 C6             1.2672     1.8716     0.5326 C.ar    
   7 C7             4.8775    -0.0505     0.2077 C.3     
   8 C8             4.8562     1.4559     0.0686 C.2     
   9 C9             3.6898     2.1297    -0.0194 C.2     
  10 C10            6.2145    -0.4875     0.8134 C.3     
  11 C11            6.9090     0.5352     1.7199 C.3     
  12 N12            7.1187     1.7702     0.9608 N.pl3   
  13 C13            6.1438     2.1634     0.0328 C.2     
  14 N14           -1.1799    -0.7294    -0.4351 N.pl3   
  15 C15           -1.7594    -1.1770    -1.5940 C.2     
  16 C16           -2.8938    -1.8123    -1.2428 C.2     
  17 N17           -3.0085    -1.7569     0.0924 N.2     
  18 C18           -1.9851    -1.1160     0.5881 C.2     
  19 C19           -3.8666    -2.4707    -2.1868 C.3     
  20 N20           -0.2615     2.9831     1.7117 N.2     
  21 O21           -0.8606     1.8378     1.1391 O.3     
  22 C22            8.2982     2.6094     1.1716 C.3     
  23 C23            8.7914     3.1205    -0.1867 C.3     
  24 N24            7.6609     3.6660    -0.9418 N.pl3   
  25 N25            6.3889     3.0916    -0.8400 N.2     
  26 C26            7.9353     3.7791     2.0497 C.2     
  27 C27            8.7015     4.2783     3.0202 C.2     
  28 C28            0.9919     3.0345     1.3745 C.2     
  29 C29            8.1580     5.3579     3.6959 C.2     
  30 C30            6.9493     5.7348     3.2727 C.2     
  31 S31            6.4397     4.6987     1.9459 S.3     
  32 Cl32           6.0251     7.0507     3.9270 Cl      
  33 C33            6.3709    -1.9658     1.1779 C.3     
  34 C34            7.1085    -1.3948    -0.0346 C.3     
  35 H35            1.1161    -1.3826    -1.5480 H       
  36 H36            3.2319    -0.1526    -1.3754 H       
  37 H37            4.0627    -0.3670     0.8589 H       
  38 H38            4.7566    -0.5079    -0.7743 H       
  39 H39            3.6883     3.2096    -0.0134 H       
  40 H40            6.2812     0.7411     2.5868 H       
  41 H41            7.8705     0.1398     2.0476 H       
  42 H42           -1.3792    -1.0455    -2.5962 H       
  43 H43           -1.8113    -0.9197     1.6358 H       
  44 H44           -3.5817    -3.5125    -2.3338 H       
  45 H45           -4.8704    -2.4246    -1.7646 H       
  46 H46           -3.8512    -1.9512    -3.1449 H       
  47 H47            9.0835     2.0225     1.6480 H       
  48 H48            9.5362     3.9013    -0.0326 H       
  49 H49            9.2377     2.2972    -0.7446 H       
  50 H50            7.7955     4.4340    -1.5187 H       
  51 H51            9.6724     3.8712     3.2612 H       
  52 H52            1.7003     3.7972     1.6623 H       
  53 H53            8.6727     5.8568     4.5038 H       
  54 H54            6.9639    -2.2066     2.0602 H       
  55 H55            5.5229    -2.6236     0.9872 H       
  56 H56            6.7459    -1.6770    -1.0230 H       
  57 H57            8.1869    -1.2601     0.0499 H       
@<TRIPOS>BOND
   1    1    2 ar
   2    1    6 ar
   3    1   21 1
   4    2    3 ar
   5    2   14 1
   6    3    4 ar
   7    3   35 1
   8    4    5 ar
   9    4   36 1
  10    5    6 ar
  11    5    9 1
  12    6   28 1
  13    7    8 1
  14    7   10 1
  15    7   37 1
  16    7   38 1
  17    8    9 2
  18    8   13 1
  19    9   39 1
  20   10   11 1
  21   10   33 1
  22   10   34 1
  23   11   12 1
  24   11   40 1
  25   11   41 1
  26   12   13 1
  27   12   22 1
  28   13   25 2
  29   14   15 1
  30   14   18 1
  31   15   16 2
  32   15   42 1
  33   16   17 1
  34   16   19 1
  35   17   18 2
  36   18   43 1
  37   19   44 1
  38   19   45 1
  39   19   46 1
  40   20   21 1
  41   20   28 2
  42   22   23 1
  43   22   26 1
  44   22   47 1
  45   23   24 1
  46   23   48 1
  47   23   49 1
  48   24   25 1
  49   24   50 1
  50   26   27 2
  51   26   31 1
  52   27   29 1
  53   27   51 1
  54   28   52 1
  55   29   30 2
  56   29   53 1
  57   30   31 1
  58   30   32 1
  59   33   34 1
  60   33   54 1
  61   33   55 1
  62   34   56 1
  63   34   57 1

#	End of record

