#	Name: ASD05143011
#	Creating user name:	WinNT
#	Creation time:	15. 06. 2019 20:57

#	Modifying user name:	WinNT
#	Modification time:	15. 06. 2019 20:57

#	Program:	/corina/corina34_cracker 3.40 0067  02.08.2006

@<TRIPOS>MOLECULE
ASD05143011
  32   33    0    0    0
SMALL
NO_CHARGES


@<TRIPOS>ATOM
   1 C1             0.0111     1.3908     0.1239 C.ar    
   2 O2             0.0434     0.0426     0.0428 O.3     
   3 C3             1.2029    -0.6328     0.0548 C.2     
   4 C4             2.4441     0.0285     0.1524 C.2     
   5 C5             2.4824     1.3840     0.2372 C.2     
   6 C6             1.2134     2.1143     0.2235 C.ar    
   7 C7             1.1867     3.5120     0.3074 C.ar    
   8 C8            -0.0224     4.1726     0.2918 C.ar    
   9 C9            -1.2163     3.4516     0.1927 C.ar    
  10 C10           -1.1984     2.0704     0.1157 C.ar    
  11 O11           -0.0547     5.5300     0.3734 O.3     
  12 O12           -2.4030     4.1119     0.1782 O.3     
  13 C13           -3.5863     3.3175     0.0751 C.3     
  14 C14           -4.7962     4.2160     0.0740 C.2     
  15 C15           -5.8389     3.9115     0.8062 C.2     
  16 C16           -5.8806     2.6017     1.5502 C.3     
  17 C17           -6.9967     4.8711     0.9045 C.3     
  18 O18            1.1824    -1.8484    -0.0203 O.2     
  19 H19            3.3619    -0.5408     0.1602 H       
  20 H20            3.4234     1.9085     0.3130 H       
  21 H21            2.1087     4.0690     0.3843 H       
  22 H22           -2.1255     1.5218     0.0393 H       
  23 H23           -0.0231     5.9764    -0.4837 H       
  24 H24           -3.5591     2.7436    -0.8512 H       
  25 H25           -3.6411     2.6354     0.9236 H       
  26 H26           -4.8036     5.1110    -0.5305 H       
  27 H27           -5.3658     2.7096     2.5050 H       
  28 H28           -6.9178     2.3169     1.7268 H       
  29 H29           -5.3882     1.8310     0.9571 H       
  30 H30           -7.4128     5.0413    -0.0884 H       
  31 H31           -7.7645     4.4489     1.5528 H       
  32 H32           -6.6502     5.8172     1.3203 H       
@<TRIPOS>BOND
   1    1    2 1
   2    1    6 ar
   3    1   10 ar
   4    2    3 1
   5    3    4 1
   6    3   18 2
   7    4    5 2
   8    4   19 1
   9    5    6 1
  10    5   20 1
  11    6    7 ar
  12    7    8 ar
  13    7   21 1
  14    8    9 ar
  15    8   11 1
  16    9   10 ar
  17    9   12 1
  18   10   22 1
  19   11   23 1
  20   12   13 1
  21   13   14 1
  22   13   24 1
  23   13   25 1
  24   14   15 2
  25   14   26 1
  26   15   16 1
  27   15   17 1
  28   16   27 1
  29   16   28 1
  30   16   29 1
  31   17   30 1
  32   17   31 1
  33   17   32 1

#	End of record

