#	Name: ASD01001137
#	Creating user name:	WinNT
#	Creation time:	15. 06. 2019 18:55

#	Modifying user name:	WinNT
#	Modification time:	15. 06. 2019 18:55

#	Program:	/corina/corina34_cracker 3.40 0067  02.08.2006

@<TRIPOS>MOLECULE
ASD01001137
  44   46    0    0    0
SMALL
NO_CHARGES


@<TRIPOS>ATOM
   1 C1            -0.1505     1.7586    -0.2388 C.2     
   2 S2            -0.0454     0.0100    -0.0861 S.3     
   3 C3             1.6586     0.0594    -0.1578 C.2     
   4 C4             2.0960     1.3174    -0.2879 C.2     
   5 C5             1.1113     2.2754    -0.3350 C.2     
   6 C6            -1.3919     2.5364    -0.2652 C.2     
   7 O7            -1.3488     3.7477    -0.3755 O.2     
   8 N8            -2.5815     1.9105    -0.1673 N.am    
   9 C9            -5.5846     4.3495    -0.2803 C.2     
  10 C10           -6.0627     3.1040    -0.1520 C.2     
  11 C11           -5.0111     2.1096    -0.1001 C.2     
  12 C12           -3.7551     2.6458    -0.1922 C.2     
  13 S13           -3.8324     4.3408    -0.3411 S.3     
  14 C14           -5.2663     0.6726     0.0374 C.2     
  15 O15           -5.5016    -0.0008    -0.9488 O.2     
  16 N16           -5.2402     0.0971     1.2559 N.am    
  17 C17           -5.6053    -1.3135     1.4076 C.3     
  18 C18           -4.3819    -2.1896     1.1309 C.3     
  19 C19           -6.0976     1.4305     3.1183 C.3     
  20 C20           -4.8468     0.8822     2.4285 C.3     
  21 C21           -6.4694     5.5776    -0.3649 C.3     
  22 O22           -7.8073     5.1488    -0.6406 O.3     
  23 C23           -8.2795     4.1226     0.2370 C.3     
  24 C24           -7.5530     2.8108    -0.0728 C.3     
  25 H25            2.2988    -0.8088    -0.1046 H       
  26 H26            3.1460     1.5622    -0.3509 H       
  27 H27            1.3143     3.3311    -0.4377 H       
  28 H28           -2.6158     0.9451    -0.0794 H       
  29 H29           -5.9566    -1.4905     2.4242 H       
  30 H30           -6.3973    -1.5618     0.7011 H       
  31 H31           -4.6736    -3.2395     1.1566 H       
  32 H32           -3.9774    -1.9488     0.1478 H       
  33 H33           -3.6231    -2.0046     1.8912 H       
  34 H34           -6.5989     2.1354     2.4550 H       
  35 H35           -6.7736     0.6080     3.3521 H       
  36 H36           -5.8115     1.9386     4.0391 H       
  37 H37           -4.2976     0.2470     3.1234 H       
  38 H38           -4.2122     1.7110     2.1147 H       
  39 H39           -6.4437     6.1151     0.5830 H       
  40 H40           -6.1195     6.2282    -1.1664 H       
  41 H41           -8.0817     4.4083     1.2702 H       
  42 H42           -9.3518     3.9880     0.0954 H       
  43 H43           -7.8963     2.4164    -1.0292 H       
  44 H44           -7.7489     2.0857     0.7171 H       
@<TRIPOS>BOND
   1    1    2 1
   2    1    5 2
   3    1    6 1
   4    2    3 1
   5    3    4 2
   6    3   25 1
   7    4    5 1
   8    4   26 1
   9    5   27 1
  10    6    7 2
  11    6    8 am
  12    8   12 1
  13    8   28 1
  14    9   10 2
  15    9   13 1
  16    9   21 1
  17   10   11 1
  18   10   24 1
  19   11   12 2
  20   11   14 1
  21   12   13 1
  22   14   15 2
  23   14   16 am
  24   16   17 1
  25   16   20 1
  26   17   18 1
  27   17   29 1
  28   17   30 1
  29   18   31 1
  30   18   32 1
  31   18   33 1
  32   19   20 1
  33   19   34 1
  34   19   35 1
  35   19   36 1
  36   20   37 1
  37   20   38 1
  38   21   22 1
  39   21   39 1
  40   21   40 1
  41   22   23 1
  42   23   24 1
  43   23   41 1
  44   23   42 1
  45   24   43 1
  46   24   44 1

#	End of record

