#	Name: ASD01230656
#	Creating user name:	WinNT
#	Creation time:	15. 06. 2019 19:14

#	Modifying user name:	WinNT
#	Modification time:	15. 06. 2019 19:14

#	Program:	/corina/corina34_cracker 3.40 0067  02.08.2006

@<TRIPOS>MOLECULE
ASD01230656
  39   41    0    0    0
SMALL
NO_CHARGES


@<TRIPOS>ATOM
   1 C1            -0.0144     1.2117     0.0087 C.2     
   2 O2             0.1988     0.1314     0.5244 O.2     
   3 C3             1.1149     2.0483    -0.4477 C.ar    
   4 C4             2.3867     1.8677     0.0993 C.ar    
   5 C5             3.4396     2.6554    -0.3334 C.ar    
   6 C6             3.2299     3.6218    -1.3086 C.ar    
   7 C7             1.9710     3.8020    -1.8515 C.ar    
   8 C8             0.9153     3.0188    -1.4320 C.ar    
   9 O9             4.6791     2.4832     0.1967 O.3     
  10 C10            5.7189     3.3305    -0.2962 C.3     
  11 C11           -1.4008     1.6844    -0.1669 C.ar    
  12 C12           -2.4549     0.7655    -0.1991 C.ar    
  13 C13           -3.7382     1.2045    -0.3613 C.ar    
  14 C14           -3.9980     2.5700    -0.4949 C.ar    
  15 C15           -2.9465     3.4883    -0.4635 C.ar    
  16 C16           -1.6629     3.0523    -0.2956 C.ar    
  17 C17           -5.8978     4.0790     0.1301 C.ar    
  18 C18           -5.3896     3.0445    -0.6707 C.ar    
  19 C19           -6.2190     2.4711    -1.6362 C.ar    
  20 C20           -7.5129     2.9505    -1.7619 C.ar    
  21 C21           -7.9425     3.9725    -0.9368 C.ar    
  22 N22           -7.1416     4.5008    -0.0307 N.ar    
  23 N23           -5.0933     4.6591     1.0991 N.pl3   
  24 H24            2.5485     1.1162     0.8578 H       
  25 H25            4.0532     4.2350    -1.6440 H       
  26 H26            1.8146     4.5552    -2.6095 H       
  27 H27           -0.0656     3.1590    -1.8616 H       
  28 H28            6.6542     3.0894     0.2089 H       
  29 H29            5.8352     3.1765    -1.3690 H       
  30 H30            5.4605     4.3720    -0.1046 H       
  31 H31           -2.2542    -0.2907    -0.0961 H       
  32 H32           -4.5522     0.4952    -0.3865 H       
  33 H33           -3.1487     4.5442    -0.5673 H       
  34 H34           -0.8502     3.7631    -0.2668 H       
  35 H35           -5.8607     1.6734    -2.2699 H       
  36 H36           -8.1803     2.5291    -2.4990 H       
  37 H37           -8.9512     4.3456    -1.0354 H       
  38 H38           -4.1822     4.3496     1.2219 H       
  39 H39           -5.4415     5.3743     1.6541 H       
@<TRIPOS>BOND
   1    1    2 2
   2    1    3 1
   3    1   11 1
   4    3    4 ar
   5    3    8 ar
   6    4    5 ar
   7    4   24 1
   8    5    6 ar
   9    5    9 1
  10    6    7 ar
  11    6   25 1
  12    7    8 ar
  13    7   26 1
  14    8   27 1
  15    9   10 1
  16   10   28 1
  17   10   29 1
  18   10   30 1
  19   11   12 ar
  20   11   16 ar
  21   12   13 ar
  22   12   31 1
  23   13   14 ar
  24   13   32 1
  25   14   15 ar
  26   14   18 1
  27   15   16 ar
  28   15   33 1
  29   16   34 1
  30   17   18 ar
  31   17   22 ar
  32   17   23 1
  33   18   19 ar
  34   19   20 ar
  35   19   35 1
  36   20   21 ar
  37   20   36 1
  38   21   22 ar
  39   21   37 1
  40   23   38 1
  41   23   39 1

#	End of record

