#	Name: ASD01911968
#	Creating user name:	WinNT
#	Creation time:	15. 06. 2019 19:58

#	Modifying user name:	WinNT
#	Modification time:	15. 06. 2019 19:58

#	Program:	/corina/corina34_cracker 3.40 0067  02.08.2006

@<TRIPOS>MOLECULE
ASD01911968
  38   40    0    0    0
SMALL
NO_CHARGES


@<TRIPOS>ATOM
   1 C1             0.7357     1.1441    -0.1745 C.ar    
   2 C2             0.5313    -0.2337    -0.1632 C.ar    
   3 C3             1.6411    -1.0659    -0.2903 C.ar    
   4 N4             2.8398    -0.5215    -0.4162 N.ar    
   5 C5             2.9914     0.7877    -0.4224 C.ar    
   6 N6             1.9671     1.6087    -0.3046 N.ar    
   7 N7            -0.7533    -0.7671    -0.0274 N.pl3   
   8 C8            -0.9375    -2.1534    -0.0183 C.ar    
   9 C9            -1.3419    -4.2069    -1.2010 C.ar    
  10 C10           -1.3033    -4.9034    -0.0058 C.ar    
  11 C11           -1.0873    -4.2263     1.1876 C.ar    
  12 C12           -0.9044    -2.8508     1.1813 C.ar    
  13 N13           -1.0490    -4.9317     2.3954 N.am    
  14 C14           -0.5147    -6.1684     2.4368 C.2     
  15 C15           -0.3799    -6.8738     3.7322 C.ar    
  16 O16           -0.1435    -6.7046     1.4113 O.2     
  17 C17            0.1728    -8.1510     3.7680 C.ar    
  18 C18           -1.1596    -2.8338    -1.2105 C.ar    
  19 F19           -1.1980    -2.1555    -2.3782 F       
  20 C20           -1.9070     0.1260     0.1055 C.3     
  21 C21            0.2932    -8.8004     4.9876 C.ar    
  22 C22           -0.1434    -8.1497     6.1292 C.ar    
  23 C23           -0.6854    -6.8750     6.0208 C.ar    
  24 N24           -0.7826    -6.2802     4.8501 N.ar    
  25 F25           -1.1130    -6.2356     7.1314 F       
  26 F26           -1.5521    -4.8676    -2.3605 F       
  27 H27           -0.0994     1.8228    -0.0829 H       
  28 H28            1.5244    -2.1396    -0.2857 H       
  29 H29            3.9841     1.1999    -0.5270 H       
  30 H30           -1.4413    -5.9746    -0.0010 H       
  31 H31           -0.7360    -2.3235     2.1087 H       
  32 H32           -1.4070    -4.5308     3.2028 H       
  33 H33            0.5031    -8.6299     2.8581 H       
  34 H34           -2.3045     0.3556    -0.8831 H       
  35 H35           -2.6774    -0.3621     0.7025 H       
  36 H36           -1.5974     1.0488     0.5960 H       
  37 H37            0.7179    -9.7917     5.0455 H       
  38 H38           -0.0638    -8.6284     7.0940 H       
@<TRIPOS>BOND
   1    1    2 ar
   2    1    6 ar
   3    1   27 1
   4    2    3 ar
   5    2    7 1
   6    3    4 ar
   7    3   28 1
   8    4    5 ar
   9    5    6 ar
  10    5   29 1
  11    7    8 1
  12    7   20 1
  13    8   18 ar
  14    8   12 ar
  15    9   10 ar
  16    9   26 1
  17    9   18 ar
  18   10   11 ar
  19   10   30 1
  20   11   12 ar
  21   11   13 1
  22   12   31 1
  23   13   14 am
  24   13   32 1
  25   14   15 1
  26   14   16 2
  27   15   17 ar
  28   15   24 ar
  29   17   21 ar
  30   17   33 1
  31   18   19 1
  32   20   34 1
  33   20   35 1
  34   20   36 1
  35   21   22 ar
  36   21   37 1
  37   22   23 ar
  38   22   38 1
  39   23   24 ar
  40   23   25 1

#	End of record

