#	Name: ASD02690017
#	Creating user name:	WinNT
#	Creation time:	15. 06. 2019 20:26

#	Modifying user name:	WinNT
#	Modification time:	15. 06. 2019 20:26

#	Program:	/corina/corina34_cracker 3.40 0067  02.08.2006

@<TRIPOS>MOLECULE
ASD02690017
  74   76    0    0    0
SMALL
NO_CHARGES


@<TRIPOS>ATOM
   1 C1             0.8879    -0.4967     1.0646 C.3     
   2 N2             0.0021    -0.0041     0.0020 N.3     
   3 C3            -0.0222     1.4638    -0.0310 C.3     
   4 C4             1.3822     1.9919    -0.3326 C.3     
   5 C5             2.3492     1.5030     0.7493 C.3     
   6 C6             2.3194    -0.0272     0.7958 C.3     
   7 C7             6.0309     2.5647     1.2016 C.ar    
   8 C8             4.7332     2.1310     1.4998 C.ar    
   9 C9             3.7450     1.9700     0.4255 C.2     
  10 C10            6.9499     2.7130     2.2083 C.ar    
  11 C11            6.5953     2.4329     3.5237 C.ar    
  12 C12            5.3078     2.0023     3.8253 C.ar    
  13 C13            4.3812     1.8508     2.8260 C.ar    
  14 C14           -1.3536    -0.5498     0.1516 C.3     
  15 C15           -2.2616     0.0333    -0.9335 C.3     
  16 N16           -3.6118    -0.5280    -0.7974 N.3     
  17 C17           -3.6017    -1.9853    -0.9776 C.3     
  18 C18           -2.7336    -2.6286     0.1062 C.3     
  19 C19           -1.3098    -2.0737     0.0090 C.3     
  20 C20           -4.5448     0.1119    -1.7344 C.3     
  21 C21           -5.8470    -0.6466    -1.7433 C.ar    
  22 C22           -6.0300    -1.6933    -2.6280 C.ar    
  23 O23           -0.7482    -2.4188    -1.2588 O.3     
  24 O24            4.0522     2.2128    -0.7225 O.2     
  25 O25            7.5085     2.5808     4.5160 O.3     
  26 C26           -6.8546    -0.2984    -0.8628 C.ar    
  27 C27           -8.0490    -0.9925    -0.8686 C.ar    
  28 C28           -8.2372    -2.0394    -1.7592 C.ar    
  29 C29           -7.2227    -2.3902    -2.6381 C.ar    
  30 O30           -9.4111    -2.7240    -1.7666 O.3     
  31 C31           -9.5347    -3.7898    -2.7105 C.3     
  32 C32            7.0783     2.2761     5.8442 C.3     
  33 H33            0.5527    -0.1079     2.0262 H       
  34 H34            0.8606    -1.5862     1.0841 H       
  35 H35           -0.7104     1.7983    -0.8073 H       
  36 H36           -0.3531     1.8434     0.9357 H       
  37 H37            1.7082     1.6239    -1.3054 H       
  38 H38            1.3670     3.0818    -0.3415 H       
  39 H39            2.0456     1.9028     1.7168 H       
  40 H40            2.9738    -0.3799     1.5929 H       
  41 H41            2.6602    -0.4269    -0.1593 H       
  42 H42            6.3086     2.7778     0.1799 H       
  43 H43            7.9510     3.0474     1.9794 H       
  44 H44            5.0376     1.7855     4.8482 H       
  45 H45            3.3816     1.5163     3.0612 H       
  46 H46           -1.7454    -0.2867     1.1341 H       
  47 H47           -2.3063     1.1171    -0.8260 H       
  48 H48           -1.8613    -0.2178    -1.9157 H       
  49 H49           -4.6196    -2.3677    -0.9021 H       
  50 H50           -3.1950    -2.2270    -1.9596 H       
  51 H51           -3.1475    -2.3988     1.0880 H       
  52 H52           -2.7137    -3.7090    -0.0372 H       
  53 H53           -0.6988    -2.4967     0.8064 H       
  54 H54           -4.7256     1.1403    -1.4218 H       
  55 H55           -4.1146     0.1069    -2.7359 H       
  56 H56           -5.2399    -1.9660    -3.3120 H       
  57 H57           -0.6944    -3.3709    -1.4191 H       
  58 H58           -6.7076     0.5167    -0.1696 H       
  59 H59           -8.8354    -0.7205    -0.1802 H       
  60 H60           -7.3669    -3.2046    -3.3326 H       
  61 H61           -9.4189    -3.3960    -3.7203 H       
  62 H62           -8.7623    -4.5349    -2.5203 H       
  63 H63          -10.5171    -4.2512    -2.6109 H       
  64 H64            6.2449     2.9248     6.1140 H       
  65 H65            6.7589     1.2351     5.8928 H       
  66 H66            7.9029     2.4360     6.5389 H       
  67 C67           14.2504    12.1931    11.5528 C.1     
  68 C68           14.2663    11.0192    11.5463 C.1     
  69 O69           14.2320    13.5479    11.5602 O.3     
  70 O70           14.2847     9.6644    11.5389 O.3     
  71 O71           15.5657    14.1636    11.5508 O.3     
  72 O72           12.9510     9.0487    11.5483 O.3     
  73 H73           15.5526    15.1305    11.5561 H       
  74 H74           12.9641     8.0818    11.5430 H       
@<TRIPOS>BOND
   1    1    2 1
   2    1    6 1
   3    1   33 1
   4    1   34 1
   5    2    3 1
   6    2   14 1
   7    3    4 1
   8    3   35 1
   9    3   36 1
  10    4    5 1
  11    4   37 1
  12    4   38 1
  13    5    6 1
  14    5    9 1
  15    5   39 1
  16    6   40 1
  17    6   41 1
  18    7    8 ar
  19    7   10 ar
  20    7   42 1
  21    8    9 1
  22    8   13 ar
  23    9   24 2
  24   10   11 ar
  25   10   43 1
  26   11   12 ar
  27   11   25 1
  28   12   13 ar
  29   12   44 1
  30   13   45 1
  31   14   15 1
  32   14   19 1
  33   14   46 1
  34   15   16 1
  35   15   47 1
  36   15   48 1
  37   16   17 1
  38   16   20 1
  39   17   18 1
  40   17   49 1
  41   17   50 1
  42   18   19 1
  43   18   51 1
  44   18   52 1
  45   19   23 1
  46   19   53 1
  47   20   21 1
  48   20   54 1
  49   20   55 1
  50   21   26 ar
  51   21   22 ar
  52   22   29 ar
  53   22   56 1
  54   23   57 1
  55   25   32 1
  56   26   27 ar
  57   26   58 1
  58   27   28 ar
  59   27   59 1
  60   28   29 ar
  61   28   30 1
  62   29   60 1
  63   30   31 1
  64   31   61 1
  65   31   62 1
  66   31   63 1
  67   32   64 1
  68   32   65 1
  69   32   66 1
  70   67   68 3
  71   67   69 1
  72   68   70 1
  73   69   71 1
  74   70   72 1
  75   71   73 1
  76   72   74 1

#	End of record

