#	Name: ASD03731634
#	Creating user name:	WinNT
#	Creation time:	15. 06. 2019 20:46

#	Modifying user name:	WinNT
#	Modification time:	15. 06. 2019 20:46

#	Program:	/corina/corina34_cracker 3.40 0067  02.08.2006

@<TRIPOS>MOLECULE
ASD03731634
  34   35    0    0    0
SMALL
NO_CHARGES


@<TRIPOS>ATOM
   1 C1            -0.4031     1.1039    -1.9617 C.2     
   2 C2            -0.2818    -0.2741    -1.4510 C.ar    
   3 C3             0.9019    -0.9946    -1.6493 C.ar    
   4 C4             1.0106    -2.2843    -1.1694 C.ar    
   5 C5            -0.0518    -2.8665    -0.4911 C.ar    
   6 C6            -1.2312    -2.1533    -0.2922 C.ar    
   7 C7            -1.3466    -0.8630    -0.7623 C.ar    
   8 O8             0.5259     1.6161    -2.5561 O.2     
   9 N9            -1.5457     1.7937    -1.7745 N.am    
  10 S10           -1.6820     3.3413    -2.3480 S.o2    
  11 O11           -2.9842     3.7487    -1.9509 O.2     
  12 O12           -0.5251     4.0015    -1.8532 O.2     
  13 C13           -1.5923     3.1653    -4.1512 C.3     
  14 F14           -2.2619    -2.7252     0.3677 F       
  15 F15            1.9359    -0.4288    -2.3096 F       
  16 O16            0.0593    -4.1350    -0.0209 O.3     
  17 C17            1.2605    -4.7560    -0.1401 C.ar    
  18 C18            2.2108    -4.6247     0.8650 C.ar    
  19 C19            3.4320    -5.2537     0.7478 C.ar    
  20 C20            3.7128    -6.0247    -0.3855 C.ar    
  21 C21            2.7531    -6.1532    -1.3933 C.ar    
  22 C22            1.5338    -5.5257    -1.2648 C.ar    
  23 C23            4.9798    -6.6799    -0.5125 C.1     
  24 N24            5.9849    -7.1996    -0.6133 N.1     
  25 Cl25           4.6192    -5.0890     2.0036 Cl      
  26 H26            1.9232    -2.8414    -1.3220 H       
  27 H27           -2.2599    -0.3091    -0.6029 H       
  28 H28           -2.2882     1.3838    -1.3038 H       
  29 H29           -2.4088     2.5304    -4.4953 H       
  30 H30           -1.6748     4.1475    -4.6166 H       
  31 H31           -0.6395     2.7123    -4.4251 H       
  32 H32            1.9927    -4.0289     1.7391 H       
  33 H33            2.9658    -6.7470    -2.2699 H       
  34 H34            0.7903    -5.6284    -2.0414 H       
@<TRIPOS>BOND
   1    1    2 1
   2    1    8 2
   3    1    9 am
   4    2    3 ar
   5    2    7 ar
   6    3    4 ar
   7    3   15 1
   8    4    5 ar
   9    4   26 1
  10    5    6 ar
  11    5   16 1
  12    6    7 ar
  13    6   14 1
  14    7   27 1
  15    9   10 am
  16    9   28 1
  17   10   11 2
  18   10   12 2
  19   10   13 1
  20   13   29 1
  21   13   30 1
  22   13   31 1
  23   16   17 1
  24   17   18 ar
  25   17   22 ar
  26   18   19 ar
  27   18   32 1
  28   19   20 ar
  29   19   25 1
  30   20   21 ar
  31   20   23 1
  32   21   22 ar
  33   21   33 1
  34   22   34 1
  35   23   24 3

#	End of record

