#	Name: ASD05430096
#	Creating user name:	WinNT
#	Creation time:	15. 06. 2019 20:59

#	Modifying user name:	WinNT
#	Modification time:	15. 06. 2019 20:59

#	Program:	/corina/corina34_cracker 3.40 0067  02.08.2006

@<TRIPOS>MOLECULE
ASD05430096
  60   66    0    0    0
SMALL
NO_CHARGES


@<TRIPOS>ATOM
   1 F1             8.3632     6.5306    -4.1254 F       
   2 C2             0.0532     1.3414    -0.6774 C.ar    
   3 C3             0.0188    -0.0137    -0.3103 C.ar    
   4 C4             1.1617    -0.6504     0.1390 C.ar    
   5 C5             2.3546     0.0409     0.2325 C.ar    
   6 C6             2.4174     1.3829    -0.1242 C.ar    
   7 C7             1.2478     2.0553    -0.5898 C.ar    
   8 O8             4.8903     0.0701    -0.0849 O.3     
   9 C9             4.8524     1.4270     0.0654 C.2     
  10 C10            3.6886     2.1096    -0.0219 C.2     
  11 C11            6.1552    -0.5267    -0.3812 C.3     
  12 C12            7.1123     0.4102    -1.1276 C.3     
  13 N13            7.2468     1.6486    -0.3596 N.pl3   
  14 C14            6.1289     2.1210     0.3270 C.2     
  15 C15            8.4600     3.5156    -1.3244 C.ar    
  16 C16            9.5945     3.8163    -2.0550 C.ar    
  17 C17            9.5631     4.8282    -2.9957 C.ar    
  18 C18            8.3949     5.5409    -3.2063 C.ar    
  19 C19            7.2593     5.2388    -2.4740 C.ar    
  20 C20            7.2930     4.2265    -1.5339 C.ar    
  21 N21           -1.1839    -0.7269    -0.3995 N.pl3   
  22 C22           -1.3672    -1.9428    -1.0056 C.2     
  23 C23           -2.6680    -2.2596    -0.8589 C.2     
  24 N24           -3.2668    -1.2681    -0.1827 N.2     
  25 C25           -2.3872    -0.3469     0.1033 C.2     
  26 C26            6.8027    -1.1926     0.8355 C.3     
  27 S27            7.5574    -2.4355    -0.2494 S.o     
  28 C28            6.0232    -1.8964    -1.0535 C.3     
  29 O29            8.6709    -1.8637    -0.9220 O.2     
  30 C30           -3.3353    -3.5117    -1.3667 C.3     
  31 C31            1.0881     3.4343    -1.0093 C.2     
  32 C32           -0.1331     3.7615    -1.3912 C.2     
  33 S33           -1.2224     2.3924    -1.2808 S.3     
  34 C34            8.4938     2.4078    -0.3033 C.3     
  35 C35            8.6337     3.0048     1.1015 C.3     
  36 O36            7.4571     3.7304     1.4434 O.3     
  37 N37            6.2268     3.1036     1.1598 N.2     
  38 H38            1.1214    -1.6929     0.4185 H       
  39 H39            3.2422    -0.4638     0.5846 H       
  40 H40            3.6942     3.1896    -0.0163 H       
  41 H41            8.0875    -0.0664    -1.2271 H       
  42 H42            6.7092     0.6342    -2.1153 H       
  43 H43           10.5057     3.2605    -1.8902 H       
  44 H44           10.4496     5.0632    -3.5661 H       
  45 H45            6.3475     5.7941    -2.6375 H       
  46 H46            6.4074     3.9907    -0.9626 H       
  47 H47           -0.6133    -2.5333    -1.5049 H       
  48 H48           -2.5847     0.5677     0.6425 H       
  49 H49            7.5351    -0.5567     1.3328 H       
  50 H50            6.0764    -1.6146     1.5301 H       
  51 H51            5.1470    -2.4537    -0.7220 H       
  52 H52            6.1021    -1.8500    -2.1396 H       
  53 H53           -3.2808    -4.2877    -0.6032 H       
  54 H54           -4.3797    -3.2997    -1.5953 H       
  55 H55           -2.8280    -3.8535    -2.2689 H       
  56 H56            1.9055     4.1401    -1.0090 H       
  57 H57           -0.4222     4.7446    -1.7321 H       
  58 H58            9.3358     1.7461    -0.5065 H       
  59 H59            8.7852     2.2013     1.8224 H       
  60 H60            9.4922     3.6760     1.1253 H       
@<TRIPOS>BOND
   1    1   18 1
   2    2    3 ar
   3    2    7 ar
   4    2   33 1
   5    3    4 ar
   6    3   21 1
   7    4    5 ar
   8    4   38 1
   9    5    6 ar
  10    5   39 1
  11    6    7 ar
  12    6   10 1
  13    7   31 1
  14    8    9 1
  15    8   11 1
  16    9   10 2
  17    9   14 1
  18   10   40 1
  19   11   12 1
  20   11   26 1
  21   11   28 1
  22   12   13 1
  23   12   41 1
  24   12   42 1
  25   13   14 1
  26   13   34 1
  27   14   37 2
  28   15   16 ar
  29   15   20 ar
  30   15   34 1
  31   16   17 ar
  32   16   43 1
  33   17   18 ar
  34   17   44 1
  35   18   19 ar
  36   19   20 ar
  37   19   45 1
  38   20   46 1
  39   21   22 1
  40   21   25 1
  41   22   23 2
  42   22   47 1
  43   23   24 1
  44   23   30 1
  45   24   25 2
  46   25   48 1
  47   26   27 1
  48   26   49 1
  49   26   50 1
  50   27   28 1
  51   27   29 2
  52   28   51 1
  53   28   52 1
  54   30   53 1
  55   30   54 1
  56   30   55 1
  57   31   32 2
  58   31   56 1
  59   32   33 1
  60   32   57 1
  61   34   35 1
  62   34   58 1
  63   35   36 1
  64   35   59 1
  65   35   60 1
  66   36   37 1

#	End of record

