#	Name: ASD01940286
#	Creating user name:	WinNT
#	Creation time:	15. 06. 2019 20:12

#	Modifying user name:	WinNT
#	Modification time:	15. 06. 2019 20:12

#	Program:	/corina/corina34_cracker 3.40 0067  02.08.2006

@<TRIPOS>MOLECULE
ASD01940286
  43   45    0    0    0
SMALL
NO_CHARGES


@<TRIPOS>ATOM
   1 C1            -1.2429     4.0216     1.4636 C.3     
   2 C2            -1.7573     3.3541     2.7406 C.3     
   3 C3            -0.2965     3.7990     2.6450 C.3     
   4 S4            -1.0187     2.9715     0.0015 S.o2    
   5 O5             0.0476     2.0545     0.2049 O.2     
   6 O6            -2.2760     2.5345    -0.4960 O.2     
   7 N7            -0.4539     4.0024    -1.1649 N.am    
   8 C8             0.7681     4.6697    -0.9804 C.ar    
   9 C9             0.7989     6.0596    -0.8988 C.ar    
  10 C10            2.0099     6.7153    -0.7158 C.ar    
  11 C11            3.1842     5.9871    -0.6148 C.ar    
  12 C12            3.1549     4.6052    -0.6958 C.ar    
  13 C13            1.9491     3.9439    -0.8731 C.ar    
  14 O14            1.9223     2.5856    -0.9468 O.3     
  15 C15            3.1549     1.8991    -0.7203 C.3     
  16 C16            2.9060     0.3895    -0.7235 C.3     
  17 N17           -0.3896     6.7956    -1.0015 N.pl3   
  18 C18           -0.3432     8.1598    -1.3050 C.ar    
  19 C19           -0.0566     8.5754    -2.5998 C.ar    
  20 C20           -0.0112     9.9236    -2.8969 C.ar    
  21 C21           -0.2511    10.8606    -1.9057 C.ar    
  22 C22           -0.5368    10.4487    -0.6151 C.ar    
  23 C23           -0.5889     9.1014    -0.3143 C.ar    
  24 I24            0.3070     7.1585    -4.0995 I       
  25 F25           -0.2058    12.1787    -2.1984 F       
  26 F26            4.3608     6.6269    -0.4373 F       
  27 F27            2.0426     8.0635    -0.6367 F       
  28 H28           -1.5670     5.0430     1.2639 H       
  29 H29           -2.4198     3.9363     3.3810 H       
  30 H30           -1.9610     2.2840     2.7022 H       
  31 H31            0.4608     3.0216     2.5437 H       
  32 H32            0.0020     4.6739     3.2226 H       
  33 H33           -0.9670     4.1454    -1.9756 H       
  34 H34            4.0725     4.0411    -0.6170 H       
  35 H35            3.8623     2.1524    -1.5099 H       
  36 H36            3.5651     2.1977     0.2445 H       
  37 H37            2.1337     0.1470     0.0064 H       
  38 H38            2.5793     0.0773    -1.7154 H       
  39 H39            3.8277    -0.1313    -0.4639 H       
  40 H40           -1.2443     6.3586    -0.8621 H       
  41 H41            0.2117    10.2473    -3.9029 H       
  42 H42           -0.7231    11.1813     0.1563 H       
  43 H43           -0.8162     8.7807     0.6916 H       
@<TRIPOS>BOND
   1    1    2 1
   2    1    3 1
   3    1    4 1
   4    1   28 1
   5    2    3 1
   6    2   29 1
   7    2   30 1
   8    3   31 1
   9    3   32 1
  10    4    5 2
  11    4    6 2
  12    4    7 am
  13    7    8 1
  14    7   33 1
  15    8    9 ar
  16    8   13 ar
  17    9   10 ar
  18    9   17 1
  19   10   11 ar
  20   10   27 1
  21   11   12 ar
  22   11   26 1
  23   12   13 ar
  24   12   34 1
  25   13   14 1
  26   14   15 1
  27   15   16 1
  28   15   35 1
  29   15   36 1
  30   16   37 1
  31   16   38 1
  32   16   39 1
  33   17   18 1
  34   17   40 1
  35   18   19 ar
  36   18   23 ar
  37   19   20 ar
  38   19   24 1
  39   20   21 ar
  40   20   41 1
  41   21   22 ar
  42   21   25 1
  43   22   23 ar
  44   22   42 1
  45   23   43 1

#	End of record

