#	Name: ASD03332172
#	Creating user name:	WinNT
#	Creation time:	15. 06. 2019 20:40

#	Modifying user name:	WinNT
#	Modification time:	15. 06. 2019 20:40

#	Program:	/corina/corina34_cracker 3.40 0067  02.08.2006

@<TRIPOS>MOLECULE
ASD03332172
  60   62    0    0    0
SMALL
NO_CHARGES


@<TRIPOS>ATOM
   1 C1            -0.3539     1.8533    -0.7461 C.2     
   2 N2            -0.4223     0.5583    -1.1554 N.pl3   
   3 C3             0.8559     0.1216    -1.3478 C.2     
   4 N4             1.6810     1.0985    -1.0512 N.2     
   5 C5             0.9657     2.1810    -0.6731 C.2     
   6 C6             1.5155     3.4831    -0.2564 C.2     
   7 O7             0.7655     4.3858     0.0625 O.2     
   8 N8             2.8495     3.6736    -0.2288 N.am    
   9 C9             3.3961     4.9681     0.1855 C.3     
  10 C10           -1.6556    -0.2130    -1.3332 C.3     
  11 C11           -2.6630     0.6268    -2.1248 C.3     
  12 C12           -3.4768     1.4930    -1.1688 C.3     
  13 N13           -2.6682     1.9175    -0.0243 N.3     
  14 C14           -1.5310     2.7464    -0.4510 C.3     
  15 C15            1.2464    -1.2267    -1.8121 C.ar    
  16 C16            3.5060     5.0107     1.7109 C.3     
  17 C17            4.3814     3.8516     2.1917 C.3     
  18 C18            4.1357     6.3374     2.1400 C.3     
  19 C19            2.1109     4.8856     2.3265 C.3     
  20 C20            4.7626     5.1540    -0.4221 C.2     
  21 N21            5.3034     6.3860    -0.5004 N.am    
  22 O22            5.3758     4.1949    -0.8405 O.2     
  23 C23            6.5861     6.5811    -1.1806 C.3     
  24 C24            2.1491    -1.3713    -2.8688 C.ar    
  25 C25            2.5092    -2.6352    -3.2973 C.ar    
  26 C26            1.9785    -3.7549    -2.6829 C.ar    
  27 C27            1.0841    -3.6198    -1.6366 C.ar    
  28 C28            0.7190    -2.3627    -1.1927 C.ar    
  29 C29           -3.4902     2.6224     0.9684 C.3     
  30 F30            2.6682    -0.2787    -3.4704 F       
  31 F31           -0.1545    -2.2327    -0.1703 F       
  32 H32            3.4476     2.9536    -0.4832 H       
  33 H33            2.7360     5.7665    -0.1536 H       
  34 H34           -1.4362    -1.1300    -1.8800 H       
  35 H35           -2.0744    -0.4605    -0.3577 H       
  36 H36           -2.1288     1.2661    -2.8276 H       
  37 H37           -3.3331    -0.0341    -2.6745 H       
  38 H38           -3.8339     2.3747    -1.7011 H       
  39 H39           -4.3330     0.9220    -0.8097 H       
  40 H40           -1.2691     3.4435     0.3450 H       
  41 H41           -1.8014     3.3017    -1.3491 H       
  42 H42            5.3753     3.9407     1.7531 H       
  43 H43            4.4597     3.8819     3.2784 H       
  44 H44            3.9328     2.9064     1.8860 H       
  45 H45            3.5142     7.1633     1.7940 H       
  46 H46            4.2104     6.3694     3.2270 H       
  47 H47            5.1312     6.4247     1.7048 H       
  48 H48            1.6623     3.9404     2.0208 H       
  49 H49            2.1893     4.9159     3.4132 H       
  50 H50            1.4873     5.7113     1.9840 H       
  51 H51            4.8432     7.1436    -0.1063 H       
  52 H52            7.3542     5.9874    -0.6850 H       
  53 H53            6.4977     6.2658    -2.2203 H       
  54 H54            6.8608     7.6352    -1.1428 H       
  55 H55            3.2066    -2.7486    -4.1141 H       
  56 H56            2.2637    -4.7397    -3.0221 H       
  57 H57            0.6736    -4.4989    -1.1621 H       
  58 H58           -4.2786     1.9592     1.3243 H       
  59 H59           -2.8649     2.9266     1.8078 H       
  60 H60           -3.9370     3.5045     0.5098 H       
@<TRIPOS>BOND
   1    1    2 1
   2    1    5 2
   3    1   14 1
   4    2    3 1
   5    2   10 1
   6    3    4 2
   7    3   15 1
   8    4    5 1
   9    5    6 1
  10    6    7 2
  11    6    8 am
  12    8    9 1
  13    8   32 1
  14    9   16 1
  15    9   20 1
  16    9   33 1
  17   10   11 1
  18   10   34 1
  19   10   35 1
  20   11   12 1
  21   11   36 1
  22   11   37 1
  23   12   13 1
  24   12   38 1
  25   12   39 1
  26   13   14 1
  27   13   29 1
  28   14   40 1
  29   14   41 1
  30   15   24 ar
  31   15   28 ar
  32   16   17 1
  33   16   18 1
  34   16   19 1
  35   17   42 1
  36   17   43 1
  37   17   44 1
  38   18   45 1
  39   18   46 1
  40   18   47 1
  41   19   48 1
  42   19   49 1
  43   19   50 1
  44   20   21 am
  45   20   22 2
  46   21   23 1
  47   21   51 1
  48   23   52 1
  49   23   53 1
  50   23   54 1
  51   24   25 ar
  52   24   30 1
  53   25   26 ar
  54   25   55 1
  55   26   27 ar
  56   26   56 1
  57   27   28 ar
  58   27   57 1
  59   28   31 1
  60   29   58 1
  61   29   59 1
  62   29   60 1

#	End of record

