#	Name: ASD03731793
#	Creating user name:	WinNT
#	Creation time:	15. 06. 2019 20:46

#	Modifying user name:	WinNT
#	Modification time:	15. 06. 2019 20:46

#	Program:	/corina/corina34_cracker 3.40 0067  02.08.2006

@<TRIPOS>MOLECULE
ASD03731793
  36   37    0    0    0
SMALL
NO_CHARGES


@<TRIPOS>ATOM
   1 C1             0.1207     1.4720    -0.0165 C.2     
   2 C2             0.1042    -0.0039    -0.0176 C.ar    
   3 C3             1.2953    -0.7177    -0.1767 C.ar    
   4 C4             1.2756    -2.0952    -0.1773 C.ar    
   5 C5             0.0719    -2.7752    -0.0202 C.ar    
   6 C6            -1.1139    -2.0683     0.1381 C.ar    
   7 C7            -1.1012    -0.6909     0.1459 C.ar    
   8 O8             1.1713     2.0684    -0.1540 O.2     
   9 N9            -1.0296     2.1586     0.1315 N.am    
  10 S10           -1.0111     3.8145     0.1328 S.o2    
  11 O11           -2.3698     4.1799     0.3325 O.2     
  12 O12           -0.0136     4.1531     1.0865 O.2     
  13 C13           -0.4707     4.2625    -1.5399 C.3     
  14 O14            0.0558    -4.1323    -0.0222 O.3     
  15 C15            0.2832    -4.7746     1.1535 C.ar    
  16 C16            0.2132    -6.1593     1.2139 C.ar    
  17 C17            0.4447    -6.8098     2.4101 C.ar    
  18 C18            0.7460    -6.0824     3.5470 C.ar    
  19 C19            0.8159    -4.7029     3.4897 C.ar    
  20 C20            0.5913    -4.0477     2.2943 C.ar    
  21 C21           -0.1156    -6.9526    -0.0246 C.3     
  22 Cl22           2.7540    -2.9836    -0.3747 Cl      
  23 H23            2.2297    -0.1901    -0.2993 H       
  24 H24           -2.0463    -2.5996     0.2597 H       
  25 H25           -2.0228    -0.1426     0.2739 H       
  26 H26           -1.8683     1.6828     0.2372 H       
  27 H27           -1.1765     3.8640    -2.2687 H       
  28 H28           -0.4296     5.3480    -1.6299 H       
  29 H29            0.5186     3.8447    -1.7261 H       
  30 H30            0.3900    -7.8873     2.4577 H       
  31 H31            0.9267    -6.5929     4.4814 H       
  32 H32            1.0507    -4.1371     4.3792 H       
  33 H33            0.6507    -2.9703     2.2489 H       
  34 H34            0.8056    -7.2043    -0.5500 H       
  35 H35           -0.6347    -7.8685     0.2578 H       
  36 H36           -0.7555    -6.3587    -0.6772 H       
@<TRIPOS>BOND
   1    1    2 1
   2    1    8 2
   3    1    9 am
   4    2    3 ar
   5    2    7 ar
   6    3    4 ar
   7    3   23 1
   8    4    5 ar
   9    4   22 1
  10    5    6 ar
  11    5   14 1
  12    6    7 ar
  13    6   24 1
  14    7   25 1
  15    9   10 am
  16    9   26 1
  17   10   11 2
  18   10   12 2
  19   10   13 1
  20   13   27 1
  21   13   28 1
  22   13   29 1
  23   14   15 1
  24   15   16 ar
  25   15   20 ar
  26   16   17 ar
  27   16   21 1
  28   17   18 ar
  29   17   30 1
  30   18   19 ar
  31   18   31 1
  32   19   20 ar
  33   19   32 1
  34   20   33 1
  35   21   34 1
  36   21   35 1
  37   21   36 1

#	End of record

