#	Name: ASD01817059
#	Creating user name:	WinNT
#	Creation time:	15. 06. 2019 19:36

#	Modifying user name:	WinNT
#	Modification time:	15. 06. 2019 19:36

#	Program:	/corina/corina34_cracker 3.40 0067  02.08.2006

@<TRIPOS>MOLECULE
ASD01817059
  62   67    0    0    0
SMALL
NO_CHARGES


@<TRIPOS>ATOM
   1 C1             0.2193     1.0153     0.0455 C.ar    
   2 C2             0.3716    -0.3492     0.2075 C.ar    
   3 C3             1.6296    -0.8977     0.3495 C.ar    
   4 C4             2.7567    -0.0801     0.3300 C.ar    
   5 C5             2.5913     1.2924     0.1654 C.ar    
   6 C6             1.3341     1.8352     0.0249 C.ar    
   7 N7             4.1125    -0.3919     0.4520 N.am    
   8 C8             4.8941     0.7025     0.3786 C.2     
   9 C9             3.9748     1.8780     0.1870 C.3     
  10 O10            6.1043     0.7344     0.4533 O.2     
  11 C11            4.6250    -1.7516     0.6385 C.3     
  12 C12            4.8914    -2.3770    -0.7064 C.ar    
  13 C13            6.0544    -2.0689    -1.3929 C.ar    
  14 C14            6.3026    -2.6411    -2.6270 C.ar    
  15 C15            5.3810    -3.5275    -3.1781 C.ar    
  16 C16            4.2131    -3.8332    -2.4824 C.ar    
  17 C17            3.9767    -3.2611    -1.2489 C.ar    
  18 F18            6.9469    -1.2082    -0.8563 F       
  19 C19            5.6417    -4.1447    -4.5031 C.2     
  20 C20            6.7731    -3.9287    -5.3137 C.2     
  21 N21            6.6389    -4.6463    -6.3975 N.2     
  22 N22            5.4268    -5.3430    -6.3225 N.pl3   
  23 C23            4.8317    -5.0286    -5.1542 C.2     
  24 C24            4.8989    -6.2599    -7.3359 C.3     
  25 C25            4.2900     2.6332    -1.1067 C.3     
  26 N26            4.5805     4.0342    -0.7220 N.3     
  27 C27            5.0453     3.9800     0.6886 C.3     
  28 C28            4.1329     2.8986     1.3251 C.3     
  29 C29            5.6096     4.6169    -1.5934 C.3     
  30 C30            5.0855     4.7125    -3.0369 C.3     
  31 C31            5.1042     6.2082    -3.4144 C.3     
  32 C32            6.1641     6.8254    -2.4685 C.3     
  33 C33            5.9285     6.0578    -1.1440 C.3     
  34 H34           -0.7671     1.4400    -0.0691 H       
  35 H35           -0.4985    -0.9889     0.2234 H       
  36 H36            1.7406    -1.9645     0.4764 H       
  37 H37            1.2177     2.9014    -0.1023 H       
  38 H38            5.5512    -1.7152     1.2122 H       
  39 H39            3.8876    -2.3473     1.1765 H       
  40 H40            7.2092    -2.4006    -3.1625 H       
  41 H41            3.4956    -4.5202    -2.9062 H       
  42 H42            3.0714    -3.4981    -0.7097 H       
  43 H43            7.6061    -3.2821    -5.0805 H       
  44 H44            3.8824    -5.4034    -4.8008 H       
  45 H45            5.2469    -7.2715    -7.1271 H       
  46 H46            3.8094    -6.2384    -7.3130 H       
  47 H47            5.2478    -5.9518    -8.3215 H       
  48 H48            5.1598     2.1921    -1.5936 H       
  49 H49            3.4307     2.6007    -1.7765 H       
  50 H50            6.0913     3.6773     0.7372 H       
  51 H51            4.8996     4.9427     1.1785 H       
  52 H52            3.1672     3.3217     1.6017 H       
  53 H53            4.6179     2.4428     2.1883 H       
  54 H54            6.5126     4.0072    -1.5636 H       
  55 H55            5.7346     4.1499    -3.7079 H       
  56 H56            4.0675     4.3265    -3.0909 H       
  57 H57            5.4017     6.3352    -4.4553 H       
  58 H58            4.1273     6.6584    -3.2382 H       
  59 H59            7.1706     6.6448    -2.8459 H       
  60 H60            5.9867     7.8923    -2.3334 H       
  61 H61            5.0847     6.4837    -0.6011 H       
  62 H62            6.8276     6.0750    -0.5280 H       
@<TRIPOS>BOND
   1    1    2 ar
   2    1    6 ar
   3    1   34 1
   4    2    3 ar
   5    2   35 1
   6    3    4 ar
   7    3   36 1
   8    4    5 ar
   9    4    7 1
  10    5    6 ar
  11    5    9 1
  12    6   37 1
  13    7    8 am
  14    7   11 1
  15    8    9 1
  16    8   10 2
  17    9   25 1
  18    9   28 1
  19   11   12 1
  20   11   38 1
  21   11   39 1
  22   12   13 ar
  23   12   17 ar
  24   13   14 ar
  25   13   18 1
  26   14   15 ar
  27   14   40 1
  28   15   16 ar
  29   15   19 1
  30   16   17 ar
  31   16   41 1
  32   17   42 1
  33   19   20 1
  34   19   23 2
  35   20   21 2
  36   20   43 1
  37   21   22 1
  38   22   23 1
  39   22   24 1
  40   23   44 1
  41   24   45 1
  42   24   46 1
  43   24   47 1
  44   25   26 1
  45   25   48 1
  46   25   49 1
  47   26   27 1
  48   26   29 1
  49   27   28 1
  50   27   50 1
  51   27   51 1
  52   28   52 1
  53   28   53 1
  54   29   30 1
  55   29   33 1
  56   29   54 1
  57   30   31 1
  58   30   55 1
  59   30   56 1
  60   31   32 1
  61   31   57 1
  62   31   58 1
  63   32   33 1
  64   32   59 1
  65   32   60 1
  66   33   61 1
  67   33   62 1

#	End of record

