#	Name: ASD02038106
#	Creating user name:	WinNT
#	Creation time:	15. 06. 2019 20:16

#	Modifying user name:	WinNT
#	Modification time:	15. 06. 2019 20:16

#	Program:	/corina/corina34_cracker 3.40 0067  02.08.2006

@<TRIPOS>MOLECULE
ASD02038106
  48   50    0    0    0
SMALL
NO_CHARGES


@<TRIPOS>ATOM
   1 C1            -0.1691     1.1580     0.1081 C.ar    
   2 C2            -0.0902    -0.2188    -0.0057 C.ar    
   3 C3             0.9869     1.9150     0.1991 C.ar    
   4 C4             2.2228     1.2961     0.1759 C.ar    
   5 C5             2.3038    -0.0854     0.0617 C.ar    
   6 C6             1.1420    -0.8419    -0.0284 C.ar    
   7 N7             3.5517    -0.7138     0.0380 N.3     
   8 C8             6.8896    -3.1270     0.9769 C.3     
   9 C9             6.7005    -4.6409     1.0925 C.3     
  10 C10            8.0556    -5.3365     0.9480 C.3     
  11 O11            6.1376    -4.9545     2.3680 O.3     
  12 O12            7.8654    -6.7528     0.9393 O.3     
  13 C13            8.9784    -7.5244     0.8168 C.ar    
  14 C14            8.8656    -8.9067     0.8013 C.ar    
  15 C15            9.9962    -9.6905     0.6769 C.ar    
  16 C16           11.2441    -9.0952     0.5671 C.ar    
  17 C17           11.3568    -7.7129     0.5817 C.ar    
  18 C18           10.2258    -6.9290     0.7017 C.ar    
  19 Cl19          -1.7197     1.9383     0.1296 Cl      
  20 Cl20           0.8841     3.6420     0.3417 Cl      
  21 O21           12.3572    -9.8668     0.4455 O.3     
  22 C22            3.4054    -2.1707    -0.0878 C.3     
  23 C23            4.7909    -2.8128    -0.1900 C.3     
  24 N24            5.5777    -2.4664     1.0018 N.3     
  25 C25            5.7240    -1.0095     1.1276 C.3     
  26 C26            4.3385    -0.3674     1.2299 C.3     
  27 H27           -0.9934    -0.8068    -0.0765 H       
  28 H28            3.1245     1.8865     0.2461 H       
  29 H29            1.2025    -1.9165    -0.1169 H       
  30 H30            7.4915    -2.7711     1.8130 H       
  31 H31            7.3957    -2.8945     0.0399 H       
  32 H32            6.0299    -4.9845     0.3050 H       
  33 H33            8.5250    -5.0272     0.0142 H       
  34 H34            8.6965    -5.0611     1.7856 H       
  35 H35            6.6822    -4.6769     3.1173 H       
  36 H36            7.8939    -9.3702     0.8868 H       
  37 H37            9.9085   -10.7669     0.6655 H       
  38 H38           12.3285    -7.2494     0.4962 H       
  39 H39           10.3135    -5.8526     0.7131 H       
  40 H40           12.5942   -10.0741    -0.4688 H       
  41 H41            2.8874    -2.5611     0.7882 H       
  42 H42            2.8301    -2.4023    -0.9842 H       
  43 H43            4.6859    -3.8959    -0.2543 H       
  44 H44            5.2983    -2.4429    -1.0810 H       
  45 H45            6.2993    -0.7779     2.0240 H       
  46 H46            6.2420    -0.6191     0.2516 H       
  47 H47            4.4435     0.7157     1.2941 H       
  48 H48            3.8311    -0.7373     2.1208 H       
@<TRIPOS>BOND
   1    1    2 ar
   2    1    3 ar
   3    1   19 1
   4    2    6 ar
   5    2   27 1
   6    3    4 ar
   7    3   20 1
   8    4    5 ar
   9    4   28 1
  10    5    6 ar
  11    5    7 1
  12    6   29 1
  13    7   22 1
  14    7   26 1
  15    8    9 1
  16    8   24 1
  17    8   30 1
  18    8   31 1
  19    9   11 1
  20    9   10 1
  21    9   32 1
  22   10   12 1
  23   10   33 1
  24   10   34 1
  25   11   35 1
  26   12   13 1
  27   13   14 ar
  28   13   18 ar
  29   14   15 ar
  30   14   36 1
  31   15   16 ar
  32   15   37 1
  33   16   17 ar
  34   16   21 1
  35   17   18 ar
  36   17   38 1
  37   18   39 1
  38   21   40 1
  39   22   23 1
  40   22   41 1
  41   22   42 1
  42   23   24 1
  43   23   43 1
  44   23   44 1
  45   24   25 1
  46   25   26 1
  47   25   45 1
  48   25   46 1
  49   26   47 1
  50   26   48 1

#	End of record

