#	Name: ASD01910116
#	Creating user name:	WinNT
#	Creation time:	15. 06. 2019 19:55

#	Modifying user name:	WinNT
#	Modification time:	15. 06. 2019 19:55

#	Program:	/corina/corina34_cracker 3.40 0067  02.08.2006

@<TRIPOS>MOLECULE
ASD01910116
  42   45    0    0    0
SMALL
NO_CHARGES


@<TRIPOS>ATOM
   1 C1             0.1119     0.5008     0.4064 C.ar    
   2 C2             0.3420    -0.8595     0.4526 C.ar    
   3 C3             1.6352    -1.3579     0.3882 C.ar    
   4 C4             2.7041    -0.4849     0.2768 C.ar    
   5 C5             2.4726     0.9058     0.2293 C.ar    
   6 C6             1.1738     1.3911     0.2947 C.ar    
   7 C7             4.1696    -0.6534     0.1853 C.2     
   8 N8             4.7353     0.5635     0.0919 N.am    
   9 C9             3.8033     1.5334     0.1109 C.2     
  10 C10            6.1769     0.8014    -0.0156 C.3     
  11 C11            6.6016     0.6709    -1.4556 C.ar    
  12 C12            6.4527     1.7442    -2.3241 C.ar    
  13 C13            6.8457     1.6204    -3.6507 C.ar    
  14 C14            7.3831     0.4313    -4.1022 C.ar    
  15 C15            7.5302    -0.6366    -3.2344 C.ar    
  16 C16            7.1446    -0.5145    -1.9114 C.ar    
  17 N17            5.9077     2.9473    -1.8641 N.am    
  18 C18            5.3624     3.8174    -2.7371 C.2     
  19 C19            4.8913     5.1408    -2.2672 C.ar    
  20 O20            5.2571     3.5161    -3.9097 O.2     
  21 O21            4.0206     2.7265     0.0415 O.2     
  22 O22            4.7635    -1.7128     0.1936 O.2     
  23 Br23           8.2660    -2.2637    -3.8567 Br      
  24 C24            4.3286     6.0356    -3.1743 C.ar    
  25 C25            3.8924     7.2704    -2.7197 C.ar    
  26 C26            4.0343     7.5669    -1.3733 C.ar    
  27 C27            4.6036     6.6284    -0.5272 C.ar    
  28 N28            5.0041     5.4621    -0.9840 N.ar    
  29 F29            0.9428     2.7215     0.2495 F       
  30 H30           -0.8999     0.8757     0.4530 H       
  31 H31           -0.4912    -1.5412     0.5399 H       
  32 H32            1.8075    -2.4234     0.4253 H       
  33 H33            6.4072     1.8051     0.3416 H       
  34 H34            6.7120     0.0690     0.5889 H       
  35 H35            6.7308     2.4534    -4.3285 H       
  36 H36            7.6884     0.3344    -5.1336 H       
  37 H37            7.2609    -1.3495    -1.2363 H       
  38 H38            5.9222     3.1555    -0.9169 H       
  39 H39            4.2338     5.7713    -4.2172 H       
  40 H40            3.4523     7.9851    -3.3992 H       
  41 H41            3.7049     8.5203    -0.9873 H       
  42 H42            4.7157     6.8562     0.5226 H       
@<TRIPOS>BOND
   1    1    2 ar
   2    1    6 ar
   3    1   30 1
   4    2    3 ar
   5    2   31 1
   6    3    4 ar
   7    3   32 1
   8    4    5 ar
   9    4    7 1
  10    5    6 ar
  11    5    9 1
  12    6   29 1
  13    7    8 am
  14    7   22 2
  15    8    9 am
  16    8   10 1
  17    9   21 2
  18   10   11 1
  19   10   33 1
  20   10   34 1
  21   11   12 ar
  22   11   16 ar
  23   12   13 ar
  24   12   17 1
  25   13   14 ar
  26   13   35 1
  27   14   15 ar
  28   14   36 1
  29   15   16 ar
  30   15   23 1
  31   16   37 1
  32   17   18 am
  33   17   38 1
  34   18   19 1
  35   18   20 2
  36   19   24 ar
  37   19   28 ar
  38   24   25 ar
  39   24   39 1
  40   25   26 ar
  41   25   40 1
  42   26   27 ar
  43   26   41 1
  44   27   28 ar
  45   27   42 1

#	End of record

