#	Name: ASD01914215
#	Creating user name:	WinNT
#	Creation time:	15. 06. 2019 20:03

#	Modifying user name:	WinNT
#	Modification time:	15. 06. 2019 20:03

#	Program:	/corina/corina34_cracker 3.40 0067  02.08.2006

@<TRIPOS>MOLECULE
ASD01914215
  21   21    0    0    0
SMALL
NO_CHARGES


@<TRIPOS>ATOM
   1 C1            -0.0184     1.5028     0.0103 C.2     
   2 C2             0.0021    -0.0041     0.0020 C.3     
   3 C3             1.4513    -0.4944    -0.0145 C.3     
   4 C4             1.4713    -1.9662    -0.0225 C.1     
   5 C5             1.4872    -3.1401    -0.0290 C.1     
   6 O6             1.0291     2.1267     0.0037 O.co2   
   7 O7            -1.0824     2.0980     0.0186 O.co2   
   8 S8             0.8671    -7.0171    -0.0448 S.3     
   9 C9             2.5142    -6.5617    -0.0576 C.2     
  10 N10            2.6287    -5.2793    -0.0514 N.2     
  11 C11            1.5066    -4.5719    -0.0369 C.2     
  12 C12            0.3840    -5.3230    -0.0307 C.2     
  13 C13            3.6716    -7.5267    -0.0735 C.3     
  14 H14           -0.4983    -0.3791     0.8948 H       
  15 H15           -0.5153    -0.3696    -0.8850 H       
  16 H16            1.9516    -0.1193    -0.9073 H       
  17 H17            1.9686    -0.1289     0.8726 H       
  18 H18           -0.6299    -4.9510    -0.0198 H       
  19 H19            3.2925    -8.5487    -0.0758 H       
  20 H20            4.2717    -7.3597    -0.9679 H       
  21 H21            4.2877    -7.3698     0.8119 H       
@<TRIPOS>BOND
   1    1    2 1
   2    1    6 ar
   3    1    7 ar
   4    2    3 1
   5    2   14 1
   6    2   15 1
   7    3    4 1
   8    3   16 1
   9    3   17 1
  10    4    5 3
  11    5   11 1
  12    8    9 1
  13    8   12 1
  14    9   10 2
  15    9   13 1
  16   10   11 1
  17   11   12 2
  18   12   18 1
  19   13   19 1
  20   13   20 1
  21   13   21 1

#	End of record

