#	Name: ASD01883014
#	Creating user name:	WinNT
#	Creation time:	15. 06. 2019 19:45

#	Modifying user name:	WinNT
#	Modification time:	15. 06. 2019 19:45

#	Program:	/corina/corina34_cracker 3.40 0067  02.08.2006

@<TRIPOS>MOLECULE
ASD01883014
  49   52    0    0    0
SMALL
NO_CHARGES


@<TRIPOS>ATOM
   1 C1             0.0970     1.6454    -0.1788 C.3     
   2 C2            -0.0343     0.1236    -0.0830 C.3     
   3 C3             0.5171    -0.3540     1.2623 C.3     
   4 C4             2.0020     0.0102     1.3593 C.3     
   5 N5             2.1514     1.4527     1.1238 N.pl3   
   6 C6             1.5771     2.0322    -0.0981 C.3     
   7 N7             4.1292     3.8526     3.8542 N.am    
   8 C8             4.8265     2.8847     3.2309 C.2     
   9 C9             4.1831     2.0451     2.2912 C.2     
  10 C10            2.8170     2.2463     2.0308 C.2     
  11 C11            2.1424     3.2747     2.7144 C.2     
  12 C12            2.8073     4.0425     3.6051 C.2     
  13 O13            6.0114     2.7320     3.4753 O.2     
  14 C14            4.9099     1.0107     1.6185 C.1     
  15 N15            5.4864     0.1902     1.0849 N.1     
  16 C16            4.8078     4.7145     4.8252 C.3     
  17 C17            5.3818     5.9378     4.1076 C.3     
  18 C18           -1.4865    -0.2631    -0.1962 C.ar    
  19 C19           -4.1505    -0.9727    -0.4034 C.ar    
  20 C20           -3.8012     0.2514     0.1357 C.ar    
  21 C21           -2.4689     0.6037     0.2447 C.ar    
  22 O22            0.7044    -0.4857    -1.1437 O.3     
  23 C23           -1.8363    -1.4821    -0.7461 C.ar    
  24 C24           -3.1683    -1.8369    -0.8499 C.ar    
  25 C25            6.0307     7.0226     4.9696 C.3     
  26 C26            6.9023     6.1076     4.1071 C.3     
  27 H27           -0.3172     1.9873    -1.1273 H       
  28 H28           -0.4458     2.1099     0.6444 H       
  29 H29           -0.0297     0.1293     2.0719 H       
  30 H30            0.4019    -1.4352     1.3395 H       
  31 H31            2.3750    -0.2384     2.3529 H       
  32 H32            2.5638    -0.5431     0.6068 H       
  33 H33            2.1043     1.6438    -0.9695 H       
  34 H34            1.6698     3.1178    -0.0662 H       
  35 H35            1.0924     3.4475     2.5301 H       
  36 H36            2.2789     4.8287     4.1240 H       
  37 H37            4.0951     5.0392     5.5833 H       
  38 H38            5.6165     4.1596     5.3008 H       
  39 H39            4.8389     6.2591     3.2187 H       
  40 H40           -5.1913    -1.2480    -0.4885 H       
  41 H41           -4.5685     0.9266     0.4845 H       
  42 H42           -2.1956     1.5560     0.6746 H       
  43 H43            0.6659    -1.4519    -1.1453 H       
  44 H44           -1.0689    -2.1573    -1.0949 H       
  45 H45           -3.4416    -2.7893    -1.2795 H       
  46 H46            5.9150     8.0575     4.6476 H       
  47 H47            6.0486     6.8648     6.0480 H       
  48 H48            7.4938     5.3478     4.6181 H       
  49 H49            7.3601     6.5406     3.2177 H       
@<TRIPOS>BOND
   1    1    2 1
   2    1    6 1
   3    1   27 1
   4    1   28 1
   5    2    3 1
   6    2   22 1
   7    2   18 1
   8    3    4 1
   9    3   29 1
  10    3   30 1
  11    4    5 1
  12    4   31 1
  13    4   32 1
  14    5    6 1
  15    5   10 1
  16    6   33 1
  17    6   34 1
  18    7    8 am
  19    7   16 1
  20    7   12 1
  21    8    9 1
  22    8   13 2
  23    9   10 2
  24    9   14 1
  25   10   11 1
  26   11   12 2
  27   11   35 1
  28   12   36 1
  29   14   15 3
  30   16   17 1
  31   16   37 1
  32   16   38 1
  33   17   25 1
  34   17   26 1
  35   17   39 1
  36   18   23 ar
  37   18   21 ar
  38   19   20 ar
  39   19   24 ar
  40   19   40 1
  41   20   21 ar
  42   20   41 1
  43   21   42 1
  44   22   43 1
  45   23   24 ar
  46   23   44 1
  47   24   45 1
  48   25   26 1
  49   25   46 1
  50   25   47 1
  51   26   48 1
  52   26   49 1

#	End of record

