#	Name: ASD02560476
#	Creating user name:	WinNT
#	Creation time:	15. 06. 2019 20:25

#	Modifying user name:	WinNT
#	Modification time:	15. 06. 2019 20:25

#	Program:	/corina/corina34_cracker 3.40 0067  02.08.2006

@<TRIPOS>MOLECULE
ASD02560476
  49   52    0    0    0
SMALL
NO_CHARGES


@<TRIPOS>ATOM
   1 C1             0.1798    -2.6002    -3.7226 C.2     
   2 C2             0.9623    -3.4936    -2.9694 C.2     
   3 C3             1.9086    -3.0291    -2.1290 C.2     
   4 N4             2.1218    -1.6839    -1.9963 N.pl3   
   5 C5             1.3718    -0.7861    -2.7207 C.2     
   6 C6             0.3793    -1.2607    -3.6026 C.2     
   7 C7             2.9945    -0.9546    -1.2356 C.2     
   8 C8             2.7627     0.3545    -1.5072 C.2     
   9 N9             1.7771     0.4347    -2.4083 N.2     
  10 C10            3.4929     1.5225    -0.8959 C.3     
  11 N11            3.9471    -1.4634    -0.3441 N.3     
  12 C12            5.3102    -1.2160    -0.8326 C.3     
  13 C13            6.3001    -1.1083     0.3538 C.3     
  14 C14            4.3274     2.2013    -1.9513 C.ar    
  15 C15            5.6984     2.2892    -1.7977 C.ar    
  16 C16            3.7225     2.7311    -3.0757 C.ar    
  17 C17            4.4880     3.3538    -4.0438 C.ar    
  18 C18            5.8583     3.4471    -3.8873 C.ar    
  19 C19            6.4638     2.9119    -2.7658 C.ar    
  20 C20            2.4786     2.5180    -0.3293 C.3     
  21 C21            5.8211    -2.4253    -1.6429 C.3     
  22 C22            7.3141    -2.5818    -1.3049 C.3     
  23 C23            7.6584    -1.4622    -0.3011 C.3     
  24 C24            2.7384    -3.9995    -1.3286 C.3     
  25 H25           -0.5743    -2.9771    -4.3976 H       
  26 H26            0.8040    -4.5577    -3.0644 H       
  27 H27           -0.2162    -0.5670    -4.1775 H       
  28 H28            4.1400     1.1670    -0.0941 H       
  29 H29            3.8189    -1.0793     0.5801 H       
  30 H30            5.3387    -0.3109    -1.4393 H       
  31 H31            6.3161    -0.0940     0.7526 H       
  32 H32            6.0482    -1.8271     1.1335 H       
  33 H33            6.1714     1.8717    -0.9211 H       
  34 H34            2.6519     2.6582    -3.1980 H       
  35 H35            4.0155     3.7671    -4.9227 H       
  36 H36            6.4563     3.9332    -4.6438 H       
  37 H37            7.5344     2.9848    -2.6435 H       
  38 H38            1.8751     2.0270     0.4341 H       
  39 H39            3.0068     3.3628     0.1129 H       
  40 H40            1.8315     2.8735    -1.1311 H       
  41 H41            5.2768    -3.3246    -1.3548 H       
  42 H42            5.6973    -2.2390    -2.7097 H       
  43 H43            7.4943    -3.5571    -0.8528 H       
  44 H44            7.9148    -2.4715    -2.2077 H       
  45 H45            8.0683    -0.5963    -0.8211 H       
  46 H46            8.3606    -1.8253     0.4494 H       
  47 H47            2.3678    -5.0121    -1.4880 H       
  48 H48            3.7785    -3.9387    -1.6490 H       
  49 H49            2.6691    -3.7497    -0.2699 H       
@<TRIPOS>BOND
   1    1    2 1
   2    1    6 2
   3    1   25 1
   4    2    3 2
   5    2   26 1
   6    3    4 1
   7    3   24 1
   8    4    5 1
   9    4    7 1
  10    5    6 1
  11    5    9 2
  12    6   27 1
  13    7    8 2
  14    7   11 1
  15    8    9 1
  16    8   10 1
  17   10   14 1
  18   10   20 1
  19   10   28 1
  20   11   12 1
  21   11   29 1
  22   12   21 1
  23   12   13 1
  24   12   30 1
  25   13   23 1
  26   13   31 1
  27   13   32 1
  28   14   15 ar
  29   14   16 ar
  30   15   19 ar
  31   15   33 1
  32   16   17 ar
  33   16   34 1
  34   17   18 ar
  35   17   35 1
  36   18   19 ar
  37   18   36 1
  38   19   37 1
  39   20   38 1
  40   20   39 1
  41   20   40 1
  42   21   22 1
  43   21   41 1
  44   21   42 1
  45   22   23 1
  46   22   43 1
  47   22   44 1
  48   23   45 1
  49   23   46 1
  50   24   47 1
  51   24   48 1
  52   24   49 1

#	End of record

