#	Name: ASD03731279
#	Creating user name:	WinNT
#	Creation time:	15. 06. 2019 20:45

#	Modifying user name:	WinNT
#	Modification time:	15. 06. 2019 20:45

#	Program:	/corina/corina34_cracker 3.40 0067  02.08.2006

@<TRIPOS>MOLECULE
ASD03731279
  60   66    0    0    0
SMALL
NO_CHARGES


@<TRIPOS>ATOM
   1 N1            -0.0162     1.3436     0.0094 N.am    
   2 C2             0.1291     0.0037     0.0241 C.2     
   3 O3             1.2375    -0.4885    -0.0633 O.2     
   4 N4            -0.9541    -0.7904     0.1356 N.am    
   5 C5            -0.7961    -2.2468     0.1515 C.3     
   6 C6            -2.1696    -2.9073     0.2859 C.3     
   7 O7             3.2442    -7.2978     2.0481 O.3     
   8 C8             3.8109    -8.6029     2.2682 C.3     
   9 O9             2.7443    -9.3375     2.8972 O.3     
  10 C10            1.5901    -8.7536     2.4593 C.ar    
  11 C11            1.8981    -7.4990     1.9382 C.ar    
  12 C12            0.2804    -9.1989     2.4623 C.ar    
  13 C13           -0.7370    -8.4003     1.9487 C.ar    
  14 C14           -0.4181    -7.1455     1.4384 C.ar    
  15 C15            0.8876    -6.7012     1.4284 C.ar    
  16 O16           -2.0732    -8.6521     1.8416 O.3     
  17 C17           -1.7136    -6.5222     0.9921 C.3     
  18 C18           -2.7773    -7.4095     1.6530 C.3     
  19 N19           -2.0116    -4.3637     0.3018 N.am    
  20 C20           -1.8330    -5.0890     1.4239 C.2     
  21 C21           -1.8521    -6.5005    -0.5013 C.ar    
  22 C22           -1.8341    -7.4764    -1.4727 C.ar    
  23 C23           -1.9942    -7.1327    -2.8032 C.ar    
  24 C24           -2.1716    -5.8070    -3.1551 C.ar    
  25 C25           -2.1893    -4.8258    -2.1859 C.ar    
  26 C26           -2.0294    -5.1626    -0.8440 C.ar    
  27 O27           -1.7797    -4.6668     2.5596 O.2     
  28 C28            1.1105     2.1677    -0.0235 C.ar    
  29 C29            2.2946     1.7056    -0.5560 C.ar    
  30 C30            3.4234     2.5187    -0.5932 C.ar    
  31 C31            3.3904     3.7899    -0.1065 C.ar    
  32 C32            2.2025     4.2995     0.4445 C.ar    
  33 C33            2.1390     5.6078     0.9549 C.ar    
  34 C34            0.9721     6.0692     1.4819 C.ar    
  35 C35           -0.1640     5.2633     1.5244 C.ar    
  36 C36           -0.1389     3.9913     1.0397 C.ar    
  37 C37            1.0453     3.4830     0.4829 C.ar    
  38 H38           -0.9036     1.7353     0.0177 H       
  39 H39           -1.8383    -0.3977     0.2053 H       
  40 H40           -0.3260    -2.5715    -0.7767 H       
  41 H41           -0.1701    -2.5351     0.9960 H       
  42 H42           -2.6397    -2.5827     1.2141 H       
  43 H43           -2.7956    -2.6190    -0.5586 H       
  44 H44            4.0873    -9.0652     1.3205 H       
  45 H45            4.6743    -8.5389     2.9304 H       
  46 H46            0.0458   -10.1728     2.8659 H       
  47 H47            1.1224    -5.7284     1.0222 H       
  48 H48           -3.6329    -7.5459     0.9917 H       
  49 H49           -3.0892    -6.9921     2.6103 H       
  50 H50           -1.6953    -8.5110    -1.1956 H       
  51 H51           -1.9811    -7.8979    -3.5653 H       
  52 H52           -2.2964    -5.5387    -4.1938 H       
  53 H53           -2.3277    -3.7927    -2.4686 H       
  54 H54            2.3472     0.7009    -0.9487 H       
  55 H55            4.3408     2.1349    -1.0146 H       
  56 H56            4.2767     4.4060    -0.1437 H       
  57 H57            3.0118     6.2434     0.9293 H       
  58 H58            0.9260     7.0747     1.8734 H       
  59 H59           -1.0776     5.6534     1.9482 H       
  60 H60           -1.0267     3.3776     1.0797 H       
@<TRIPOS>BOND
   1    1    2 am
   2    1   28 1
   3    1   38 1
   4    2    3 2
   5    2    4 am
   6    4    5 1
   7    4   39 1
   8    5    6 1
   9    5   40 1
  10    5   41 1
  11    6   19 1
  12    6   42 1
  13    6   43 1
  14    7    8 1
  15    7   11 1
  16    8    9 1
  17    8   44 1
  18    8   45 1
  19    9   10 1
  20   10   11 ar
  21   10   12 ar
  22   11   15 ar
  23   12   13 ar
  24   12   46 1
  25   13   14 ar
  26   13   16 1
  27   14   15 ar
  28   14   17 1
  29   15   47 1
  30   16   18 1
  31   17   18 1
  32   17   20 1
  33   17   21 1
  34   18   48 1
  35   18   49 1
  36   19   20 am
  37   19   26 1
  38   20   27 2
  39   21   22 ar
  40   21   26 ar
  41   22   23 ar
  42   22   50 1
  43   23   24 ar
  44   23   51 1
  45   24   25 ar
  46   24   52 1
  47   25   26 ar
  48   25   53 1
  49   28   29 ar
  50   28   37 ar
  51   29   30 ar
  52   29   54 1
  53   30   31 ar
  54   30   55 1
  55   31   32 ar
  56   31   56 1
  57   32   33 ar
  58   32   37 ar
  59   33   34 ar
  60   33   57 1
  61   34   35 ar
  62   34   58 1
  63   35   36 ar
  64   35   59 1
  65   36   37 ar
  66   36   60 1

#	End of record

