#	Name: ASD02198889
#	Creating user name:	WinNT
#	Creation time:	15. 06. 2019 20:20

#	Modifying user name:	WinNT
#	Modification time:	15. 06. 2019 20:20

#	Program:	/corina/corina34_cracker 3.40 0067  02.08.2006

@<TRIPOS>MOLECULE
ASD02198889
  51   55    0    0    0
SMALL
NO_CHARGES


@<TRIPOS>ATOM
   1 C1            -0.0433     1.5018    -0.1149 C.2     
   2 C2            -0.0731     0.1621     0.0976 C.2     
   3 N3             1.0714    -0.5397     0.2599 N.pl3   
   4 N4             2.2359    -0.0049     0.2262 N.2     
   5 C5             2.4075     1.2844     0.0281 C.2     
   6 C6             1.2217     2.1357    -0.1604 C.2     
   7 C7             0.9800    -1.9175     0.4758 C.ar    
   8 C8             1.5823    -2.4889     1.5967 C.ar    
   9 C9             1.4913    -3.8528     1.8096 C.ar    
  10 C10            0.7978    -4.6525     0.9032 C.ar    
  11 C11            0.1972    -4.0765    -0.2162 C.ar    
  12 C12            0.2843    -2.7165    -0.4234 C.ar    
  13 C13            3.7645     1.8667    -0.0041 C.2     
  14 N14            4.3067     2.6068    -1.0171 N.pl3   
  15 N15            5.6087     2.9579    -0.6391 N.2     
  16 C16            5.8523     2.4581     0.5462 C.2     
  17 C17            4.7200     1.7711     0.9838 C.2     
  18 C18            3.6739     2.9518    -2.2181 C.ar    
  19 C19            3.8081     4.2349    -2.7314 C.ar    
  20 C20            3.1835     4.5727    -3.9163 C.ar    
  21 C21            2.4249     3.6348    -4.5916 C.ar    
  22 C22            2.2889     2.3546    -4.0829 C.ar    
  23 C23            2.9159     2.0095    -2.9006 C.ar    
  24 O24            1.3247     3.3388    -0.3483 O.2     
  25 C25            0.6988    -6.1148     1.1283 C.ar    
  26 N26            1.2728    -6.6568     2.1950 N.ar    
  27 C27           -0.0009    -6.9078     0.2212 C.ar    
  28 C28           -0.0850    -8.2713     0.4449 C.ar    
  29 C29            0.5341    -8.7973     1.5697 C.ar    
  30 C30            1.2078    -7.9511     2.4314 C.ar    
  31 Cl31           1.3354     1.1798    -4.9341 Cl      
  32 O32            2.2584    -1.7064     2.4787 O.3     
  33 C33            2.8500    -2.3590     3.6039 C.3     
  34 H34           -0.9546     2.0654    -0.2494 H       
  35 H35           -1.0229    -0.3503     0.1379 H       
  36 H36            1.9573    -4.2971     2.6767 H       
  37 H37           -0.3403    -4.6960    -0.9188 H       
  38 H38           -0.1818    -2.2723    -1.2906 H       
  39 H39            6.7757     2.5641     1.0962 H       
  40 H40            4.6140     1.2513     1.9246 H       
  41 H41            4.4002     4.9685    -2.2044 H       
  42 H42            3.2876     5.5708    -4.3154 H       
  43 H43            1.9373     3.9015    -5.5176 H       
  44 H44            2.8100     1.0106    -2.5040 H       
  45 H45           -0.4714    -6.4649    -0.6442 H       
  46 H46           -0.6209    -8.9112    -0.2405 H       
  47 H47            0.4866    -9.8570     1.7727 H       
  48 H48            1.6911    -8.3575     3.3076 H       
  49 H49            2.0732    -2.8537     4.1869 H       
  50 H50            3.5708    -3.0994     3.2569 H       
  51 H51            3.3574    -1.6218     4.2261 H       
@<TRIPOS>BOND
   1    1    2 2
   2    1    6 1
   3    1   34 1
   4    2    3 1
   5    2   35 1
   6    3    4 1
   7    3    7 1
   8    4    5 2
   9    5    6 1
  10    5   13 1
  11    6   24 2
  12    7    8 ar
  13    7   12 ar
  14    8    9 ar
  15    8   32 1
  16    9   10 ar
  17    9   36 1
  18   10   11 ar
  19   10   25 1
  20   11   12 ar
  21   11   37 1
  22   12   38 1
  23   13   14 1
  24   13   17 2
  25   14   15 1
  26   14   18 1
  27   15   16 2
  28   16   17 1
  29   16   39 1
  30   17   40 1
  31   18   19 ar
  32   18   23 ar
  33   19   20 ar
  34   19   41 1
  35   20   21 ar
  36   20   42 1
  37   21   22 ar
  38   21   43 1
  39   22   23 ar
  40   22   31 1
  41   23   44 1
  42   25   26 ar
  43   25   27 ar
  44   26   30 ar
  45   27   28 ar
  46   27   45 1
  47   28   29 ar
  48   28   46 1
  49   29   30 ar
  50   29   47 1
  51   30   48 1
  52   32   33 1
  53   33   49 1
  54   33   50 1
  55   33   51 1

#	End of record

