#	Name: ASD01680090
#	Creating user name:	WinNT
#	Creation time:	15. 06. 2019 19:22

#	Modifying user name:	WinNT
#	Modification time:	15. 06. 2019 19:22

#	Program:	/corina/corina34_cracker 3.40 0067  02.08.2006

@<TRIPOS>MOLECULE
ASD01680090
  83   86    0    0    0
SMALL
NO_CHARGES


@<TRIPOS>ATOM
   1 C1            -0.4577     0.6885    -3.1113 C.2     
   2 C2            -0.5431    -0.7709    -2.7456 C.3     
   3 C3            -1.2846    -1.5303    -3.8476 C.3     
   4 O4             0.6212     1.2176    -3.2375 O.2     
   5 O5            -1.5803     1.3993    -3.3024 O.3     
   6 N6             0.8082    -1.3177    -2.6001 N.am    
   7 S7             1.5152    -1.3910    -1.1044 S.o2    
   8 O8             2.7887    -1.9930    -1.2915 O.2     
   9 O9             1.3401    -0.1100    -0.5147 O.2     
  10 C10            0.5695    -2.5183    -0.1352 C.ar    
  11 C11           -0.3795    -2.0417     0.7498 C.ar    
  12 C12           -1.1213    -2.9262     1.5103 C.ar    
  13 C13           -0.9145    -4.2872     1.3854 C.ar    
  14 C14            0.0338    -4.7639     0.4997 C.ar    
  15 C15            0.7726    -3.8796    -0.2638 C.ar    
  16 C16            1.8029    -4.3994    -1.2331 C.3     
  17 C17           -1.7226    -5.2514     2.2151 C.3     
  18 C18           -0.6049    -0.5579     0.8860 C.3     
  19 N19           -1.2638    -2.9648    -3.5511 N.am    
  20 C20           -1.8601    -3.8351    -4.3899 C.2     
  21 O21           -2.4139    -3.4306    -5.3902 O.2     
  22 C22           -1.8386    -5.3107    -4.0849 C.3     
  23 O23           -2.5312    -6.0200    -5.1142 O.3     
  24 N24           -4.9107    -7.8918    -5.1488 N.am    
  25 C25           -3.8388    -7.8542    -4.1373 C.3     
  26 C26           -2.5695    -7.4352    -4.9202 C.3     
  27 C27           -2.7759    -8.1759    -6.2678 C.3     
  28 C28           -4.3040    -8.1043    -6.4710 C.3     
  29 C29           -4.8112    -9.4170    -7.0714 C.3     
  30 N30           -4.2855    -9.5677    -8.4305 N.pl3   
  31 C31           -4.5278   -10.7358    -9.1439 C.ar    
  32 C32           -5.2705   -11.7580    -8.5613 C.ar    
  33 C33           -5.5040   -12.9148    -9.2824 C.ar    
  34 C34           -4.9852   -13.0111   -10.5671 C.ar    
  35 C35           -4.2572   -11.9580   -11.0829 C.ar    
  36 N36           -4.0545   -10.8636   -10.3738 N.ar    
  37 C37           -6.2290    -7.7593    -4.9016 C.2     
  38 N38           -6.6557    -7.4760    -3.6550 N.am    
  39 O39           -7.0333    -7.8952    -5.8033 O.2     
  40 C40           -8.0267    -7.4338    -3.3773 C.ar    
  41 C41           -8.5010    -7.8676    -2.1464 C.ar    
  42 C42           -9.8546    -7.8242    -1.8753 C.ar    
  43 C43          -10.7372    -7.3495    -2.8281 C.ar    
  44 C44          -10.2680    -6.9173    -4.0550 C.ar    
  45 C45           -8.9150    -6.9527    -4.3301 C.ar    
  46 H46           -1.0820    -0.8787    -1.8043 H       
  47 H47           -2.3171    -1.1842    -3.8958 H       
  48 H48           -0.7960    -1.3500    -4.8051 H       
  49 H49           -1.4750     2.3319    -3.5355 H       
  50 H50            1.2888    -1.6369    -3.3799 H       
  51 H51           -1.8622    -2.5538     2.2022 H       
  52 H52            0.1956    -5.8273     0.4024 H       
  53 H53            2.7843    -4.3920    -0.7588 H       
  54 H54            1.5472    -5.4185    -1.5232 H       
  55 H55            1.8223    -3.7637    -2.1183 H       
  56 H56           -2.6293    -5.5241     1.6751 H       
  57 H57           -1.1322    -6.1469     2.4095 H       
  58 H58           -1.9907    -4.7806     3.1609 H       
  59 H59           -1.1228    -0.1865     0.0017 H       
  60 H60           -1.2105    -0.3621     1.7708 H       
  61 H61            0.3556    -0.0519     0.9838 H       
  62 H62           -0.8208    -3.2883    -2.7511 H       
  63 H63           -0.8061    -5.6568    -4.0368 H       
  64 H64           -2.3273    -5.4910    -3.1274 H       
  65 H65           -4.0697    -7.1183    -3.3671 H       
  66 H66           -3.7022    -8.8399    -3.6926 H       
  67 H67           -1.6674    -7.7830    -4.4167 H       
  68 H68           -2.2549    -7.6607    -7.0748 H       
  69 H69           -2.4449    -9.2118    -6.1931 H       
  70 H70           -4.5516    -7.2725    -7.1305 H       
  71 H71           -4.4741   -10.2518    -6.4569 H       
  72 H72           -5.9007    -9.4053    -7.1025 H       
  73 H73           -3.7683    -8.8523    -8.8326 H       
  74 H74           -5.6589   -11.6498    -7.5594 H       
  75 H75           -6.0767   -13.7251    -8.8561 H       
  76 H76           -5.1493   -13.9011   -11.1564 H       
  77 H77           -3.8519   -12.0287   -12.0815 H       
  78 H78           -6.0125    -7.3015    -2.9501 H       
  79 H79           -7.8122    -8.2388    -1.4019 H       
  80 H80          -10.2242    -8.1617    -0.9183 H       
  81 H81          -11.7952    -7.3166    -2.6138 H       
  82 H82          -10.9599    -6.5474    -4.7972 H       
  83 H83           -8.5487    -6.6106    -5.2868 H       
@<TRIPOS>BOND
   1    1    2 1
   2    1    4 2
   3    1    5 1
   4    2    3 1
   5    2    6 1
   6    2   46 1
   7    3   19 1
   8    3   47 1
   9    3   48 1
  10    5   49 1
  11    6    7 am
  12    6   50 1
  13    7    8 2
  14    7    9 2
  15    7   10 1
  16   10   11 ar
  17   10   15 ar
  18   11   12 ar
  19   11   18 1
  20   12   13 ar
  21   12   51 1
  22   13   14 ar
  23   13   17 1
  24   14   15 ar
  25   14   52 1
  26   15   16 1
  27   16   53 1
  28   16   54 1
  29   16   55 1
  30   17   56 1
  31   17   57 1
  32   17   58 1
  33   18   59 1
  34   18   60 1
  35   18   61 1
  36   19   20 am
  37   19   62 1
  38   20   21 2
  39   20   22 1
  40   22   23 1
  41   22   63 1
  42   22   64 1
  43   23   26 1
  44   24   25 1
  45   24   28 1
  46   24   37 am
  47   25   26 1
  48   25   65 1
  49   25   66 1
  50   26   27 1
  51   26   67 1
  52   27   28 1
  53   27   68 1
  54   27   69 1
  55   28   29 1
  56   28   70 1
  57   29   30 1
  58   29   71 1
  59   29   72 1
  60   30   31 1
  61   30   73 1
  62   31   32 ar
  63   31   36 ar
  64   32   33 ar
  65   32   74 1
  66   33   34 ar
  67   33   75 1
  68   34   35 ar
  69   34   76 1
  70   35   36 ar
  71   35   77 1
  72   37   38 am
  73   37   39 2
  74   38   40 1
  75   38   78 1
  76   40   41 ar
  77   40   45 ar
  78   41   42 ar
  79   41   79 1
  80   42   43 ar
  81   42   80 1
  82   43   44 ar
  83   43   81 1
  84   44   45 ar
  85   44   82 1
  86   45   83 1

#	End of record

