#	Name: ASD01811359
#	Creating user name:	WinNT
#	Creation time:	15. 06. 2019 19:26

#	Modifying user name:	WinNT
#	Modification time:	15. 06. 2019 19:26

#	Program:	/corina/corina34_cracker 3.40 0067  02.08.2006

@<TRIPOS>MOLECULE
ASD01811359
  77   80    0    0    0
SMALL
NO_CHARGES


@<TRIPOS>ATOM
   1 C1            -0.0259     1.4736    -0.5925 C.2     
   2 C2             0.0144     0.0007    -0.6624 C.ar    
   3 C3             1.1665    -0.6592    -1.1179 C.ar    
   4 C4             1.1596    -2.0268    -1.1657 C.ar    
   5 C5             0.0185    -2.7195    -0.7641 C.ar    
   6 N6            -1.0571    -2.0717    -0.3377 N.ar    
   7 C7            -1.0904    -0.7571    -0.2710 C.ar    
   8 O8             0.9436     2.1251    -0.9309 O.2     
   9 N9            -1.1391     2.0974    -0.1589 N.am    
  10 C10           -1.1448     3.4871     0.0009 C.ar    
  11 C11           -2.3115     4.2076    -0.2245 C.ar    
  12 C12           -2.3222     5.5813    -0.0684 C.ar    
  13 C13           -1.1745     6.2460     0.3122 C.ar    
  14 C14            0.0027     5.5313     0.5415 C.ar    
  15 C15            0.0121     4.1451     0.3897 C.ar    
  16 C16           -1.1917     7.7436     0.4798 C.3     
  17 C17           -3.5691     3.4893    -0.6409 C.3     
  18 C18            1.2340     6.2413     0.9490 C.2     
  19 O19            1.6777     7.1355     0.2555 O.2     
  20 N20            1.8644     5.8968     2.0894 N.am    
  21 C21            3.0434     6.6441     2.5481 C.3     
  22 C22            2.8056     7.1037     3.9899 C.3     
  23 C23            2.4534     5.8920     4.8559 C.3     
  24 C24            1.1662     5.2480     4.3357 C.3     
  25 C25            1.3821     4.7708     2.9007 C.3     
  26 F26            3.4959     4.9607     4.8005 F       
  27 C27            2.2520     6.3356     6.2820 C.ar    
  28 C28            2.2335     5.3975     7.2988 C.ar    
  29 C29            2.0496     5.7966     8.6064 C.ar    
  30 C30            1.8825     7.1509     8.9027 C.ar    
  31 C31            1.9028     8.0923     7.8716 C.ar    
  32 C32            2.0923     7.6797     6.5690 C.ar    
  33 C33            1.6907     7.5724    10.2578 C.1     
  34 N34            1.5386     7.9067    11.3327 N.1     
  35 N35            0.0079    -4.1033    -0.8116 N.pl3   
  36 C36           -0.7752     8.4086    -0.8336 C.3     
  37 C37            1.2247    -4.8331    -1.1763 C.3     
  38 C38           -1.2202    -4.8376    -0.4971 C.3     
  39 C39           -2.0337    -5.0426    -1.7766 C.3     
  40 O40           -1.3076    -5.8864    -2.6727 O.3     
  41 C41           -1.9830    -6.1426    -3.9056 C.3     
  42 H42            2.0384    -0.1002    -1.4241 H       
  43 H43            2.0301    -2.5645    -1.5117 H       
  44 H44           -1.9812    -0.2611     0.0852 H       
  45 H45           -1.9362     1.5828     0.0425 H       
  46 H46           -3.2318     6.1359    -0.2454 H       
  47 H47            0.9187     3.5865     0.5696 H       
  48 H48           -2.1971     8.0677     0.7483 H       
  49 H49           -0.4953     8.0289     1.2683 H       
  50 H50           -4.1338     3.2016     0.2459 H       
  51 H51           -4.1766     4.1495    -1.2601 H       
  52 H52           -3.3067     2.5974    -1.2098 H       
  53 H53            3.9218     5.9998     2.5101 H       
  54 H54            3.1970     7.5130     1.9081 H       
  55 H55            3.7095     7.5757     4.3750 H       
  56 H56            1.9832     7.8187     4.0128 H       
  57 H57            0.9032     4.3992     4.9669 H       
  58 H58            0.3592     5.9805     4.3554 H       
  59 H59            0.4399     4.4042     2.4933 H       
  60 H60            2.1223     3.9707     2.8920 H       
  61 H61            2.3629     4.3504     7.0682 H       
  62 H62            2.0346     5.0633     9.3991 H       
  63 H63            1.7741     9.1413     8.0939 H       
  64 H64            2.1123     8.4071     5.7710 H       
  65 H65           -0.7876     9.4918    -0.7124 H       
  66 H66            0.2303     8.0845    -1.1021 H       
  67 H67           -1.4716     8.1233    -1.6221 H       
  68 H68            1.8014    -5.0501    -0.2772 H       
  69 H69            0.9543    -5.7671    -1.6689 H       
  70 H70            1.8237    -4.2250    -1.8542 H       
  71 H71           -0.9645    -5.8072    -0.0699 H       
  72 H72           -1.8101    -4.2682     0.2212 H       
  73 H73           -2.9872    -5.5096    -1.5301 H       
  74 H74           -2.2135    -4.0780    -2.2513 H       
  75 H75           -2.9354    -6.6324    -3.7032 H       
  76 H76           -2.1617    -5.2008    -4.4245 H       
  77 H77           -1.3669    -6.7899    -4.5297 H       
@<TRIPOS>BOND
   1    1    2 1
   2    1    8 2
   3    1    9 am
   4    2    3 ar
   5    2    7 ar
   6    3    4 ar
   7    3   42 1
   8    4    5 ar
   9    4   43 1
  10    5    6 ar
  11    5   35 1
  12    6    7 ar
  13    7   44 1
  14    9   10 1
  15    9   45 1
  16   10   11 ar
  17   10   15 ar
  18   11   12 ar
  19   11   17 1
  20   12   13 ar
  21   12   46 1
  22   13   14 ar
  23   13   16 1
  24   14   15 ar
  25   14   18 1
  26   15   47 1
  27   16   36 1
  28   16   48 1
  29   16   49 1
  30   17   50 1
  31   17   51 1
  32   17   52 1
  33   18   19 2
  34   18   20 am
  35   20   21 1
  36   20   25 1
  37   21   22 1
  38   21   53 1
  39   21   54 1
  40   22   23 1
  41   22   55 1
  42   22   56 1
  43   23   24 1
  44   23   26 1
  45   23   27 1
  46   24   25 1
  47   24   57 1
  48   24   58 1
  49   25   59 1
  50   25   60 1
  51   27   28 ar
  52   27   32 ar
  53   28   29 ar
  54   28   61 1
  55   29   30 ar
  56   29   62 1
  57   30   31 ar
  58   30   33 1
  59   31   32 ar
  60   31   63 1
  61   32   64 1
  62   33   34 3
  63   35   37 1
  64   35   38 1
  65   36   65 1
  66   36   66 1
  67   36   67 1
  68   37   68 1
  69   37   69 1
  70   37   70 1
  71   38   39 1
  72   38   71 1
  73   38   72 1
  74   39   40 1
  75   39   73 1
  76   39   74 1
  77   40   41 1
  78   41   75 1
  79   41   76 1
  80   41   77 1

#	End of record

