#	Name: ASD03610001
#	Creating user name:	WinNT
#	Creation time:	15. 06. 2019 20:43

#	Modifying user name:	WinNT
#	Modification time:	15. 06. 2019 20:43

#	Program:	/corina/corina34_cracker 3.40 0067  02.08.2006

@<TRIPOS>MOLECULE
ASD03610001
  58   62    0    0    0
SMALL
NO_CHARGES


@<TRIPOS>ATOM
   1 O1            -0.0175     1.4386     0.0100 O.3     
   2 C2             0.0021    -0.0041     0.0020 C.3     
   3 C3             1.1482    -0.3535    -0.9775 C.3     
   4 C4             2.1797     0.7787    -0.6937 C.3     
   5 C5             1.3512     1.8759    -0.0008 C.3     
   6 N6            -1.2730    -0.5330    -0.4886 N.pl3   
   7 C7             1.4717     3.1877    -0.7789 C.3     
   8 O8             0.7966     4.2272    -0.0677 O.3     
   9 C9            -1.7911    -1.7760    -0.2261 C.ar    
  10 C10           -3.0210    -1.8337    -0.9027 C.ar    
  11 N11           -3.1871    -0.6453    -1.5313 N.2     
  12 C12           -2.1650     0.1217    -1.2847 C.2     
  13 N13           -1.3904    -2.8304     0.4771 N.ar    
  14 C14           -2.1328    -3.9154     0.5412 C.ar    
  15 N15           -3.2952    -4.0166    -0.0776 N.ar    
  16 C16           -3.7775    -3.0142    -0.8045 C.ar    
  17 O17            1.7885    -1.5603    -0.5326 O.3     
  18 C18            3.1123    -1.2064    -0.1083 C.3     
  19 O19            3.0586     0.1773     0.2858 O.3     
  20 C20            3.5190    -2.0532     1.0661 C.2     
  21 C21            4.8051    -2.2547     1.3290 C.2     
  22 C22            5.8323    -1.6691     0.4546 C.2     
  23 C23            5.5094    -1.2410    -0.7591 C.2     
  24 C24            4.0955    -1.3771    -1.2619 C.3     
  25 N25           -4.9965    -3.1297    -1.4494 N.pl3   
  26 N26            3.9178    -2.7026    -1.8600 N.pl3   
  27 N27            2.4838    -2.6628     1.9311 N.pl3   
  28 O28            2.8119    -3.3488     2.8826 O.2     
  29 O29            4.0893    -3.7027    -1.1863 O.2     
  30 O30            1.3039    -2.4784     1.6913 O.2     
  31 O31            3.5984    -2.8044    -3.0310 O.2     
  32 N32            7.2295    -1.5564     0.9298 N.pl3   
  33 O33            8.0814    -1.0716     0.2068 O.2     
  34 O34            7.5274    -1.9485     2.0438 O.2     
  35 P35            0.7207     5.7457    -0.5973 P.3     
  36 O36            0.1579     5.7633    -1.9660 O.2     
  37 O37           -0.2220     6.6089     0.3817 O.3     
  38 O38            2.1995     6.3818    -0.6168 O.3     
  39 P39           -1.0210     7.9981     0.2267 P.3     
  40 O40           -1.7260     8.0191    -1.0744 O.2     
  41 O41           -2.0927     8.1367     1.4201 O.3     
  42 O42            0.0187     9.2255     0.2937 O.3     
  43 H43            0.2194    -0.3893     0.9983 H       
  44 H44            0.8248    -0.3898    -2.0178 H       
  45 H45            2.6931     1.1303    -1.5886 H       
  46 H46            1.7033     2.0159     1.0213 H       
  47 H47            2.5242     3.4484    -0.8909 H       
  48 H48            1.0201     3.0688    -1.7638 H       
  49 H49           -2.0385     1.1258    -1.6618 H       
  50 H50           -1.7780    -4.7544     1.1214 H       
  51 H51            5.0962    -2.8473     2.1837 H       
  52 H52            6.2633    -0.7927    -1.3892 H       
  53 H53            3.9047    -0.6134    -2.0158 H       
  54 H54           -5.5094    -3.9495    -1.3737 H       
  55 H55           -5.3379    -2.3909    -1.9771 H       
  56 H56            2.6302     6.4027     0.2487 H       
  57 H57           -2.6116     8.9522     1.3900 H       
  58 H58            0.5173     9.2739     1.1208 H       
@<TRIPOS>BOND
   1    1    2 1
   2    1    5 1
   3    2    3 1
   4    2    6 1
   5    2   43 1
   6    3    4 1
   7    3   17 1
   8    3   44 1
   9    4    5 1
  10    4   19 1
  11    4   45 1
  12    5    7 1
  13    5   46 1
  14    6    9 1
  15    6   12 1
  16    7    8 1
  17    7   47 1
  18    7   48 1
  19    8   35 1
  20    9   10 ar
  21    9   13 ar
  22   10   11 1
  23   10   16 ar
  24   11   12 2
  25   12   49 1
  26   13   14 ar
  27   14   15 ar
  28   14   50 1
  29   15   16 ar
  30   16   25 1
  31   17   18 1
  32   18   19 1
  33   18   20 1
  34   18   24 1
  35   20   21 2
  36   20   27 1
  37   21   22 1
  38   21   51 1
  39   22   23 2
  40   22   32 1
  41   23   24 1
  42   23   52 1
  43   24   26 1
  44   24   53 1
  45   25   54 1
  46   25   55 1
  47   26   29 2
  48   26   31 2
  49   27   28 2
  50   27   30 2
  51   32   33 2
  52   32   34 2
  53   35   36 2
  54   35   37 1
  55   35   38 1
  56   37   39 1
  57   38   56 1
  58   39   40 2
  59   39   41 1
  60   39   42 1
  61   41   57 1
  62   42   58 1

#	End of record

