#	Name: ASD03091383
#	Creating user name:	WinNT
#	Creation time:	15. 06. 2019 20:30

#	Modifying user name:	WinNT
#	Modification time:	15. 06. 2019 20:30

#	Program:	/corina/corina34_cracker 3.40 0067  02.08.2006

@<TRIPOS>MOLECULE
ASD03091383
  79   81    0    0    0
SMALL
NO_CHARGES


@<TRIPOS>ATOM
   1 C1            -0.0166     1.3764     0.0096 C.ar    
   2 C2             0.0021    -0.0041     0.0020 C.ar    
   3 C3             1.2110    -0.6895    -0.0128 C.ar    
   4 C4             2.4049     0.0071    -0.0200 C.ar    
   5 C5             2.3950     1.4040    -0.0129 C.ar    
   6 C6             1.1727     2.0889     0.0021 C.ar    
   7 O7             1.1531     3.4463     0.0087 O.3     
   8 O8             1.2193    -2.0493    -0.0197 O.3     
   9 C9             3.6664     2.1552    -0.0201 C.2     
  10 C10            4.8997     1.4596    -0.0342 C.2     
  11 O11            3.6543     3.3734    -0.0138 O.2     
  12 C12            6.0658     2.1485    -0.0408 C.2     
  13 C13            7.3423     1.4284    -0.0555 C.ar    
  14 C14            8.5553     2.1407    -0.0623 C.ar    
  15 C15            9.7537     1.4500    -0.0762 C.ar    
  16 C16            9.7529     0.0609    -0.0833 C.ar    
  17 C17            8.5494    -0.6416    -0.0769 C.ar    
  18 C18            7.3601     0.0270    -0.0569 C.ar    
  19 O19           10.9278    -0.6142    -0.0968 O.3     
  20 O20           11.3821    -0.8753     1.0490 O.3     
  21 C21           12.5411    -1.5412     1.1056 C.2     
  22 C22           13.1459    -1.8888     2.4415 C.3     
  23 O23           13.1049    -1.8650     0.0821 O.2     
  24 N24           14.4035    -2.6114     2.2350 N.am    
  25 C25           13.4186    -0.6048     3.2275 C.3     
  26 C26           12.1052     0.1497     3.4432 C.3     
  27 C27           14.0326    -0.9578     4.5837 C.3     
  28 C28           14.8655    -3.4458     3.1872 C.2     
  29 C29           16.1591    -4.1891     2.9748 C.3     
  30 O30           14.2401    -3.5985     4.2150 O.2     
  31 C31           17.3203    -3.1857     2.8121 C.3     
  32 C32           18.4846    -3.8756     3.5709 C.3     
  33 C33           17.7321    -4.5600     4.7392 C.3     
  34 N34           16.4593    -5.0169     4.1521 N.am    
  35 C35           15.6969    -6.0260     4.6178 C.2     
  36 C36           16.1281    -6.7937     5.8409 C.3     
  37 O37           14.6639    -6.3163     4.0526 O.2     
  38 C38           15.7709    -5.9953     7.0963 C.3     
  39 C39           14.2498    -5.8756     7.2089 C.3     
  40 C40           16.3188    -6.7141     8.3308 C.3     
  41 N41           15.4392    -8.0907     5.8730 N.3     
  42 O42            8.5499     3.4974    -0.0558 O.3     
  43 H43           -0.9598     1.9024     0.0169 H       
  44 H44           -0.9274    -0.5540     0.0080 H       
  45 H45            3.3433    -0.5274    -0.0308 H       
  46 H46            1.1389     3.8437    -0.8728 H       
  47 H47            1.2134    -2.4382    -0.9051 H       
  48 H48            4.9104     0.3796    -0.0398 H       
  49 H49            6.0550     3.2284    -0.0353 H       
  50 H50           10.6889     1.9900    -0.0819 H       
  51 H51            8.5582    -1.7215    -0.0828 H       
  52 H52            6.4314    -0.5243    -0.0517 H       
  53 H53           12.4534    -2.5175     3.0013 H       
  54 H54           14.9037    -2.4892     1.4129 H       
  55 H55           14.1111     0.0238     2.6677 H       
  56 H56           11.4127    -0.4789     4.0030 H       
  57 H57           12.2994     1.0645     4.0032 H       
  58 H58           11.6677     0.4012     2.4770 H       
  59 H59           14.9683    -1.4954     4.4301 H       
  60 H60           14.2269    -0.0430     5.1437 H       
  61 H61           13.3401    -1.5864     5.1436 H       
  62 H62           16.0843    -4.8167     2.0867 H       
  63 H63           17.5708    -3.0532     1.7596 H       
  64 H64           17.0717    -2.2301     3.2737 H       
  65 H65           18.9796    -4.6134     2.9394 H       
  66 H66           19.1982    -3.1405     3.9431 H       
  67 H67           18.3040    -5.4093     5.1130 H       
  68 H68           17.5452    -3.8452     5.5406 H       
  69 H69           17.2055    -6.9552     5.8073 H       
  70 H70           16.2099    -4.9998     7.0309 H       
  71 H71           13.8109    -6.8712     7.2744 H       
  72 H72           13.9954    -5.3069     8.1033 H       
  73 H73           13.8595    -5.3635     6.3294 H       
  74 H74           17.4025    -6.7994     8.2505 H       
  75 H75           16.0643    -6.1454     9.2252 H       
  76 H76           15.8798    -7.7097     8.3962 H       
  77 H77           14.4382    -7.9679     5.9044 H       
  78 H78           15.7089    -8.6629     5.0868 H       
  79 H79            8.5558     3.8866     0.8294 H       
@<TRIPOS>BOND
   1    1    2 ar
   2    1    6 ar
   3    1   43 1
   4    2    3 ar
   5    2   44 1
   6    3    4 ar
   7    3    8 1
   8    4    5 ar
   9    4   45 1
  10    5    6 ar
  11    5    9 1
  12    6    7 1
  13    7   46 1
  14    8   47 1
  15    9   10 1
  16    9   11 2
  17   10   12 2
  18   10   48 1
  19   12   13 1
  20   12   49 1
  21   13   14 ar
  22   13   18 ar
  23   14   15 ar
  24   14   42 1
  25   15   16 ar
  26   15   50 1
  27   16   17 ar
  28   16   19 1
  29   17   18 ar
  30   17   51 1
  31   18   52 1
  32   19   20 1
  33   20   21 1
  34   21   22 1
  35   21   23 2
  36   22   24 1
  37   22   25 1
  38   22   53 1
  39   24   28 am
  40   24   54 1
  41   25   26 1
  42   25   27 1
  43   25   55 1
  44   26   56 1
  45   26   57 1
  46   26   58 1
  47   27   59 1
  48   27   60 1
  49   27   61 1
  50   28   29 1
  51   28   30 2
  52   29   31 1
  53   29   34 1
  54   29   62 1
  55   31   32 1
  56   31   63 1
  57   31   64 1
  58   32   33 1
  59   32   65 1
  60   32   66 1
  61   33   34 1
  62   33   67 1
  63   33   68 1
  64   34   35 am
  65   35   36 1
  66   35   37 2
  67   36   38 1
  68   36   41 1
  69   36   69 1
  70   38   39 1
  71   38   40 1
  72   38   70 1
  73   39   71 1
  74   39   72 1
  75   39   73 1
  76   40   74 1
  77   40   75 1
  78   40   76 1
  79   41   77 1
  80   41   78 1
  81   42   79 1

#	End of record

