#	Name: ASD01911449
#	Creating user name:	WinNT
#	Creation time:	15. 06. 2019 19:57

#	Modifying user name:	WinNT
#	Modification time:	15. 06. 2019 19:57

#	Program:	/corina/corina34_cracker 3.40 0067  02.08.2006

@<TRIPOS>MOLECULE
ASD01911449
  26   27    0    0    0
SMALL
NO_CHARGES


@<TRIPOS>ATOM
   1 C1            -0.0188     1.5367     0.0105 C.3     
   2 C2             0.0021    -0.0041     0.0020 C.3     
   3 N3             1.4352    -0.3349    -0.0134 N.am    
   4 O4             1.3899     1.9086    -0.0010 O.3     
   5 C5             1.9701    -1.6224    -0.0259 C.ar    
   6 C6             1.1222    -2.7194    -0.1294 C.ar    
   7 C7             1.6658    -3.9915    -0.1411 C.ar    
   8 C8             3.0454    -4.1233    -0.0484 C.ar    
   9 C9             3.8275    -2.9894     0.0519 C.ar    
  10 N10            3.2805    -1.7886     0.0555 N.ar    
  11 I11            3.9305    -6.0221    -0.0599 I       
  12 C12           -0.7246     2.0704    -1.2377 C.3     
  13 C13           -0.7006     2.0569     1.2776 C.3     
  14 C14            2.1430     0.8030    -0.0141 C.2     
  15 O15            3.3577     0.8283    -0.0249 O.2     
  16 H16           -0.4722    -0.3984     0.9007 H       
  17 H17           -0.4893    -0.3887    -0.8917 H       
  18 H18            0.0534    -2.5804    -0.1994 H       
  19 H19            1.0319    -4.8624    -0.2201 H       
  20 H20            4.9006    -3.0866     0.1246 H       
  21 H21           -1.7505     1.7027    -1.2602 H       
  22 H22           -0.7297     3.1601    -1.2142 H       
  23 H23           -0.1965     1.7285    -2.1278 H       
  24 H24           -0.1556     1.7055     2.1538 H       
  25 H25           -0.7060     3.1468     1.2659 H       
  26 H26           -1.7259     1.6889     1.3157 H       
@<TRIPOS>BOND
   1    1    2 1
   2    1    4 1
   3    1   12 1
   4    1   13 1
   5    2    3 1
   6    2   16 1
   7    2   17 1
   8    3    5 1
   9    3   14 am
  10    4   14 1
  11    5    6 ar
  12    5   10 ar
  13    6    7 ar
  14    6   18 1
  15    7    8 ar
  16    7   19 1
  17    8    9 ar
  18    8   11 1
  19    9   10 ar
  20    9   20 1
  21   12   21 1
  22   12   22 1
  23   12   23 1
  24   13   24 1
  25   13   25 1
  26   13   26 1
  27   14   15 2

#	End of record

