#	Name: ASD02508474
#	Creating user name:	WinNT
#	Creation time:	15. 06. 2019 20:24

#	Modifying user name:	WinNT
#	Modification time:	15. 06. 2019 20:24

#	Program:	/corina/corina34_cracker 3.40 0067  02.08.2006

@<TRIPOS>MOLECULE
ASD02508474
  32   34    0    0    0
SMALL
NO_CHARGES


@<TRIPOS>ATOM
   1 N1            -0.0342     1.3105     0.0309 N.2     
   2 C2             0.0226    -0.0232    -0.1041 C.2     
   3 C3             1.3168    -0.3923    -0.0998 C.2     
   4 N4             2.0566     0.7550     0.0420 N.pl3   
   5 C5             1.1762     1.7888     0.1194 C.2     
   6 C6             3.4473     0.8438     0.0970 C.ar    
   7 N7             4.1051     0.1225     0.9904 N.ar    
   8 N8             4.0767     1.6431    -0.7488 N.ar    
   9 C9             5.3953     1.7518    -0.7247 C.ar    
  10 C10            6.1169     1.0162     0.2006 C.ar    
  11 C11            5.4251     0.1831     1.0696 C.ar    
  12 S12            1.9415    -2.0333    -0.2473 S.o2    
  13 N13            1.9627    -2.4066    -1.8605 N.am    
  14 C14            2.8044    -1.7054    -2.7294 C.ar    
  15 C15            3.5572    -2.3918    -3.6732 C.ar    
  16 C16            4.3876    -1.6971    -4.5307 C.ar    
  17 C17            4.4700    -0.3173    -4.4499 C.ar    
  18 C18            3.7204     0.3692    -3.5096 C.ar    
  19 C19            2.8846    -0.3210    -2.6536 C.ar    
  20 O20            3.2985    -1.9852     0.1713 O.2     
  21 O21            0.9739    -2.8861     0.3492 O.2     
  22 Cl22           6.2795    -0.7610     2.2496 Cl      
  23 F23            5.2833     0.3602    -5.2894 F       
  24 H24           -0.8245    -0.6864    -0.1993 H       
  25 H25            1.4357     2.8308     0.2344 H       
  26 H26            5.9026     2.4059    -1.4184 H       
  27 H27            7.1939     1.0854     0.2422 H       
  28 H28            1.3911    -3.1116    -2.2028 H       
  29 H29            3.4935    -3.4681    -3.7364 H       
  30 H30            4.9735    -2.2305    -5.2647 H       
  31 H31            3.7864     1.4454    -3.4481 H       
  32 H32            2.3001     0.2148    -1.9203 H       
@<TRIPOS>BOND
   1    1    2 1
   2    1    5 2
   3    2    3 2
   4    2   24 1
   5    3    4 1
   6    3   12 1
   7    4    5 1
   8    4    6 1
   9    5   25 1
  10    6    7 ar
  11    6    8 ar
  12    7   11 ar
  13    8    9 ar
  14    9   10 ar
  15    9   26 1
  16   10   11 ar
  17   10   27 1
  18   11   22 1
  19   12   13 am
  20   12   20 2
  21   12   21 2
  22   13   14 1
  23   13   28 1
  24   14   15 ar
  25   14   19 ar
  26   15   16 ar
  27   15   29 1
  28   16   17 ar
  29   16   30 1
  30   17   18 ar
  31   17   23 1
  32   18   19 ar
  33   18   31 1
  34   19   32 1

#	End of record

