#	Name: ASD01913339
#	Creating user name:	WinNT
#	Creation time:	15. 06. 2019 20:01

#	Modifying user name:	WinNT
#	Modification time:	15. 06. 2019 20:01

#	Program:	/corina/corina34_cracker 3.40 0067  02.08.2006

@<TRIPOS>MOLECULE
ASD01913339
  38   40    0    0    0
SMALL
NO_CHARGES


@<TRIPOS>ATOM
   1 C1            -0.0166     1.3765     0.0096 C.2     
   2 C2             0.0021    -0.0041     0.0020 C.2     
   3 C3             1.2499    -0.6727    -0.0135 C.2     
   4 N4             2.3635     0.0159    -0.0204 N.2     
   5 C5             2.3514     1.3566    -0.0131 C.2     
   6 N6             1.1685     2.0507     0.0019 N.pl3   
   7 C7             3.3711     2.2994    -0.0178 C.2     
   8 C8             2.7831     3.5557    -0.0054 C.2     
   9 N9             1.4768     3.4160     0.0063 N.2     
  10 C10            3.5231     4.8685    -0.0047 C.3     
  11 C11            4.0862     5.1374    -1.4016 C.3     
  12 C12            2.5631     5.9948     0.3837 C.3     
  13 C13            4.6712     4.8062     1.0047 C.3     
  14 C14           -1.2215    -0.7480     0.0102 C.1     
  15 C15           -2.2246    -1.3579     0.0169 C.1     
  16 C16           -3.4482    -2.1018     0.0250 C.ar    
  17 C17           -3.4202    -3.4984     0.0173 C.ar    
  18 C18           -4.6050    -4.2091     0.0257 C.ar    
  19 C19           -5.8178    -3.5388     0.0418 C.ar    
  20 C20           -5.8508    -2.1556     0.0491 C.ar    
  21 C21           -4.6757    -1.4338     0.0466 C.ar    
  22 F22           -4.5812    -5.5599     0.0178 F       
  23 H23           -0.9539     1.9131     0.0170 H       
  24 H24            1.2834    -1.7522    -0.0192 H       
  25 H25            4.4309     2.0919    -0.0287 H       
  26 H26            3.2683     5.1817    -2.1207 H       
  27 H27            4.6214     6.0869    -1.4011 H       
  28 H28            4.7701     4.3350    -1.6783 H       
  29 H29            2.1619     5.8033     1.3789 H       
  30 H30            3.0983     6.9444     0.3842 H       
  31 H31            1.7452     6.0392    -0.3354 H       
  32 H32            5.3551     4.0038     0.7280 H       
  33 H33            5.2064     5.7558     1.0053 H       
  34 H34            4.2700     4.6147     1.9999 H       
  35 H35           -2.4752    -4.0210     0.0043 H       
  36 H36           -6.7414    -4.0986     0.0483 H       
  37 H37           -6.7996    -1.6397     0.0613 H       
  38 H38           -4.7040    -0.3542     0.0527 H       
@<TRIPOS>BOND
   1    1    2 2
   2    1    6 1
   3    1   23 1
   4    2    3 1
   5    2   14 1
   6    3    4 2
   7    3   24 1
   8    4    5 1
   9    5    6 1
  10    5    7 2
  11    6    9 1
  12    7    8 1
  13    7   25 1
  14    8    9 2
  15    8   10 1
  16   10   11 1
  17   10   12 1
  18   10   13 1
  19   11   26 1
  20   11   27 1
  21   11   28 1
  22   12   29 1
  23   12   30 1
  24   12   31 1
  25   13   32 1
  26   13   33 1
  27   13   34 1
  28   14   15 3
  29   15   16 1
  30   16   17 ar
  31   16   21 ar
  32   17   18 ar
  33   17   35 1
  34   18   19 ar
  35   18   22 1
  36   19   20 ar
  37   19   36 1
  38   20   21 ar
  39   20   37 1
  40   21   38 1

#	End of record

