#	Name: ASD03910082
#	Creating user name:	WinNT
#	Creation time:	15. 06. 2019 20:47

#	Modifying user name:	WinNT
#	Modification time:	15. 06. 2019 20:47

#	Program:	/corina/corina34_cracker 3.40 0067  02.08.2006

@<TRIPOS>MOLECULE
ASD03910082
  24   24    0    0    0
SMALL
NO_CHARGES


@<TRIPOS>ATOM
   1 C1            -0.0170     1.4011     0.0097 C.ar    
   2 C2             0.0021    -0.0041     0.0020 C.ar    
   3 C3             1.2292    -0.6803    -0.0133 C.ar    
   4 C4             2.4274     0.0540    -0.0208 C.ar    
   5 C5             2.3908     1.4467    -0.0130 C.ar    
   6 C6             1.1800     2.1140     0.0021 C.ar    
   7 C7            -1.3091     2.1239     0.0198 C.2     
   8 O8            -2.3523     1.5026     0.0213 O.2     
   9 O9            -1.3273     3.4706     0.0272 O.3     
  10 C10           -1.2671    -0.7655     0.0105 C.2     
  11 O11           -1.7981    -1.0722    -1.0375 O.2     
  12 O12           -1.8330    -1.1182     1.1808 O.3     
  13 C13            1.2633    -2.1600    -0.0211 C.2     
  14 O14            1.2670    -2.7616    -1.0758 O.2     
  15 O15            1.2901    -2.8391     1.1417 O.3     
  16 C16            3.7285    -0.6523    -0.0366 C.2     
  17 O17            3.7603    -1.8661    -0.0430 O.2     
  18 O18            4.8767     0.0515    -0.0437 O.3     
  19 H19            3.3133     2.0082    -0.0188 H       
  20 H20            1.1620     3.1938     0.0078 H       
  21 H21           -2.1947     3.8979     0.0336 H       
  22 H22           -2.6616    -1.6147     1.1358 H       
  23 H23            1.3119    -3.8043     1.0861 H       
  24 H24            5.7012    -0.4536    -0.0540 H       
@<TRIPOS>BOND
   1    1    2 ar
   2    1    6 ar
   3    1    7 1
   4    2    3 ar
   5    2   10 1
   6    3    4 ar
   7    3   13 1
   8    4    5 ar
   9    4   16 1
  10    5    6 ar
  11    5   19 1
  12    6   20 1
  13    7    8 2
  14    7    9 1
  15    9   21 1
  16   10   11 2
  17   10   12 1
  18   12   22 1
  19   13   14 2
  20   13   15 1
  21   15   23 1
  22   16   17 2
  23   16   18 1
  24   18   24 1

#	End of record

