#	Name: ASD01410036
#	Creating user name:	WinNT
#	Creation time:	15. 06. 2019 19:16

#	Modifying user name:	WinNT
#	Modification time:	15. 06. 2019 19:16

#	Program:	/corina/corina34_cracker 3.40 0067  02.08.2006

@<TRIPOS>MOLECULE
ASD01410036
  38   39    0    0    0
SMALL
NO_CHARGES


@<TRIPOS>ATOM
   1 C1            -0.0265     1.4021    -0.0670 C.ar    
   2 C2            -0.0036     0.0236    -0.0692 C.ar    
   3 C3            -1.2063    -0.6935    -0.0486 C.ar    
   4 C4            -2.4267     0.0004    -0.0257 C.ar    
   5 C5            -2.4289     1.3871    -0.0238 C.ar    
   6 C6            -1.2363     2.0822    -0.0386 C.ar    
   7 O7            -3.5984    -0.6826    -0.0060 O.3     
   8 C8            -4.7999     0.0907     0.0166 C.3     
   9 C9            -5.9910    -0.8323     0.0362 C.2     
  10 N10           -7.2384    -0.3223     0.0593 N.am    
  11 C11           -8.3391    -1.1701    -0.0358 C.ar    
  12 C12           -8.2750    -2.3108    -0.8241 C.ar    
  13 C13           -9.3674    -3.1499    -0.9170 C.ar    
  14 C14          -10.5337    -2.8619    -0.2271 C.ar    
  15 C15          -10.6162    -1.7339     0.5605 C.ar    
  16 C16           -9.5170    -0.8784     0.6695 C.ar    
  17 C17           -9.5980     0.3293     1.5104 C.2     
  18 O18          -10.7655     0.6686     2.0916 O.3     
  19 O19           -8.6120     1.0191     1.6796 O.2     
  20 O20           -5.8272    -2.0339     0.0313 O.2     
  21 C21           -1.1911    -2.1613    -0.0513 C.2     
  22 C22            0.1215    -2.9012    -0.0764 C.3     
  23 O23           -2.2351    -2.7786    -0.0334 O.2     
  24 F24            1.1337     2.0941    -0.0869 F       
  25 H25            0.9397    -0.5020    -0.0873 H       
  26 H26           -3.3656     1.9245    -0.0066 H       
  27 H27           -1.2447     3.1622    -0.0370 H       
  28 H28           -4.8115     0.7179     0.9080 H       
  29 H29           -4.8431     0.7209    -0.8717 H       
  30 H30           -7.3694     0.6352     0.1421 H       
  31 H31           -7.3696    -2.5420    -1.3657 H       
  32 H32           -9.3125    -4.0362    -1.5317 H       
  33 H33          -11.3828    -3.5245    -0.3072 H       
  34 H34          -11.5279    -1.5139     1.0960 H       
  35 H35          -10.7695     1.4691     2.6340 H       
  36 H36            0.9425    -2.1843    -0.0901 H       
  37 H37            0.2018    -3.5287     0.8112 H       
  38 H38            0.1695    -3.5257    -0.9684 H       
@<TRIPOS>BOND
   1    1    2 ar
   2    1   24 1
   3    1    6 ar
   4    2    3 ar
   5    2   25 1
   6    3    4 ar
   7    3   21 1
   8    4    5 ar
   9    4    7 1
  10    5    6 ar
  11    5   26 1
  12    6   27 1
  13    7    8 1
  14    8    9 1
  15    8   28 1
  16    8   29 1
  17    9   10 am
  18    9   20 2
  19   10   11 1
  20   10   30 1
  21   11   12 ar
  22   11   16 ar
  23   12   13 ar
  24   12   31 1
  25   13   14 ar
  26   13   32 1
  27   14   15 ar
  28   14   33 1
  29   15   16 ar
  30   15   34 1
  31   16   17 1
  32   17   18 1
  33   17   19 2
  34   18   35 1
  35   21   22 1
  36   21   23 2
  37   22   36 1
  38   22   37 1
  39   22   38 1

#	End of record

