#	Name: ASD08070033
#	Creating user name:	WinNT
#	Creation time:	15. 06. 2019 21:14

#	Modifying user name:	WinNT
#	Modification time:	15. 06. 2019 21:14

#	Program:	/corina/corina34_cracker 3.40 0067  02.08.2006

@<TRIPOS>MOLECULE
ASD08070033
  34   34    0    0    0
SMALL
NO_CHARGES


@<TRIPOS>ATOM
   1 C1            -0.0162     1.3454     0.0094 C.2     
   2 O2             0.0021    -0.0041     0.0020 O.3     
   3 C3             1.1579     2.2225     0.0029 C.2     
   4 N4             2.3962     1.6907    -0.0112 N.am    
   5 O5             1.0147     3.4311     0.0103 O.2     
   6 C6             3.5699     2.5675    -0.0177 C.3     
   7 C7             3.9166     2.9662     1.4181 C.3     
   8 C8             4.7551     1.8284    -0.6421 C.3     
   9 C9             4.4575     1.5395    -2.1148 C.3     
  10 C10            2.7826     3.8122     2.0004 C.3     
  11 C11            3.1293     4.2109     3.4363 C.3     
  12 C12            5.6428     0.8004    -2.7392 C.3     
  13 C13           -1.2554    -0.4655     0.0111 C.2     
  14 C14           -2.1049     0.5877     0.0245 C.2     
  15 C15           -1.3207     1.7508     0.0181 C.2     
  16 Br16          -1.7602    -2.2878     0.0049 Br      
  17 H17            2.5104     0.7275    -0.0171 H       
  18 H18            3.3518     3.4623    -0.6007 H       
  19 H19            4.0478     2.0688     2.0228 H       
  20 H20            4.8403     3.5448     1.4216 H       
  21 H21            5.6495     2.4468    -0.5667 H       
  22 H22            4.9171     0.8892    -0.1132 H       
  23 H23            3.5631     0.9211    -2.1903 H       
  24 H24            4.2955     2.4787    -2.6438 H       
  25 H25            2.6514     4.7096     1.3958 H       
  26 H26            1.8589     3.2336     1.9970 H       
  27 H27            2.3214     4.8137     3.8512 H       
  28 H28            3.2605     3.3136     4.0410 H       
  29 H29            4.0530     4.7896     3.4398 H       
  30 H30            6.5372     1.4188    -2.6638 H       
  31 H31            5.8048    -0.1388    -2.2103 H       
  32 H32            5.4307     0.5946    -3.7884 H       
  33 H33           -3.1839     0.5416     0.0338 H       
  34 H34           -1.6789     2.7696     0.0259 H       
@<TRIPOS>BOND
   1    1    2 1
   2    1    3 1
   3    1   15 2
   4    2   13 1
   5    3    4 am
   6    3    5 2
   7    4    6 1
   8    4   17 1
   9    6    7 1
  10    6    8 1
  11    6   18 1
  12    7   10 1
  13    7   19 1
  14    7   20 1
  15    8    9 1
  16    8   21 1
  17    8   22 1
  18    9   12 1
  19    9   23 1
  20    9   24 1
  21   10   11 1
  22   10   25 1
  23   10   26 1
  24   11   27 1
  25   11   28 1
  26   11   29 1
  27   12   30 1
  28   12   31 1
  29   12   32 1
  30   13   14 2
  31   13   16 1
  32   14   15 1
  33   14   33 1
  34   15   34 1

#	End of record

