#	Name: ASD01410946
#	Creating user name:	WinNT
#	Creation time:	15. 06. 2019 19:19

#	Modifying user name:	WinNT
#	Modification time:	15. 06. 2019 19:19

#	Program:	/corina/corina34_cracker 3.40 0067  02.08.2006

@<TRIPOS>MOLECULE
ASD01410946
  87   90    0    0    0
SMALL
NO_CHARGES


@<TRIPOS>ATOM
   1 C1            -0.4932     2.3702    -0.3493 C.ar    
   2 C2            -1.4695     0.2007    -0.7170 C.ar    
   3 C3            -2.6580     0.6351    -0.1489 C.ar    
   4 C4            -2.7607     1.9489     0.3348 C.ar    
   5 C5            -1.6687     2.8149     0.2239 C.ar    
   6 O6             0.5712     3.2107    -0.4522 O.3     
   7 C7             0.7824     3.8282    -1.6415 C.ar    
   8 N8            -3.7434    -0.2339    -0.0484 N.am    
   9 C9            -3.9585    -0.9139     1.0952 C.2     
  10 C10           -3.0974    -0.6484     2.3031 C.3     
  11 O11           -4.8451    -1.7395     1.1521 O.2     
  12 C12           -3.8627    -1.0359     3.5701 C.3     
  13 C13           -0.9412    -1.2085     3.4342 C.3     
  14 C14           -1.7064    -1.5960     4.7011 C.3     
  15 C15           -2.9884    -0.7663     4.7964 C.3     
  16 C16           -0.8322    -1.3264     5.9275 C.3     
  17 N17           -0.0980     3.6864    -2.6189 N.ar    
  18 C18           -4.6503    -0.4079    -1.1857 C.3     
  19 C19           -4.5431     0.8040    -2.1135 C.3     
  20 C20            1.9179     4.6080    -1.8196 C.ar    
  21 C21            2.1214     5.2331    -3.0377 C.ar    
  22 C22            1.1770     5.0549    -4.0391 C.ar    
  23 C23            0.0686     4.2696    -3.7905 C.ar    
  24 C24           -1.8154    -1.4780     2.2078 C.3     
  25 C25            1.3562     5.7162    -5.3813 C.3     
  26 C26           -4.2672    -1.6741    -1.9544 C.3     
  27 O27           -4.4655    -2.8166    -1.1193 O.3     
  28 C28           -4.1354    -4.0582    -1.7450 C.3     
  29 C29           -0.3928     1.0623    -0.8168 C.ar    
  30 F30            0.7623     0.6334    -1.3711 F       
  31 C31            2.1374     4.7836    -6.3092 C.3     
  32 N32            2.3120     5.4282    -7.6176 N.3     
  33 C33            3.2543     4.6725    -8.4556 C.3     
  34 O34           -5.0291     1.9656    -1.4379 O.3     
  35 C35           -4.9728     3.1597    -2.2209 C.3     
  36 C36            2.7541     6.8218    -7.4634 C.3     
  37 C37            2.8656     7.4720    -8.8450 C.3     
  38 O38            3.7612     6.7064    -9.6556 O.3     
  39 C39            3.3608     5.3442    -9.8273 C.3     
  40 C40            2.9149     4.7718    -0.7014 C.3     
  41 F41            3.9613     5.5972    -1.1268 F       
  42 F42            2.2840     5.3513     0.4047 F       
  43 F43            3.4248     3.5190    -0.3441 F       
  44 C44           -4.0187     2.4184     0.9394 C.2     
  45 O45           -4.9882     1.6862     0.9708 O.2     
  46 O46           -4.0950     3.6601     1.4579 O.3     
  47 H47           -1.3877    -0.8097    -1.0896 H       
  48 H48           -1.7440     3.8296     0.5860 H       
  49 H49           -2.8428     0.4107     2.3421 H       
  50 H50           -4.7760    -0.4448     3.6379 H       
  51 H51           -4.1173    -2.0950     3.5311 H       
  52 H52           -0.6865    -0.1494     3.4731 H       
  53 H53           -0.0279    -1.7995     3.3663 H       
  54 H54           -1.9611    -2.6551     4.6622 H       
  55 H55           -2.7338     0.2928     4.8354 H       
  56 H56           -3.5336    -1.0424     5.6990 H       
  57 H57           -0.5775    -0.2673     5.9664 H       
  58 H58           -1.3774    -1.6024     6.8301 H       
  59 H59            0.0811    -1.9174     5.8596 H       
  60 H60           -5.6743    -0.4986    -0.8234 H       
  61 H61           -3.5007     0.9561    -2.3936 H       
  62 H62           -5.1383     0.6293    -3.0097 H       
  63 H63            2.9949     5.8458    -3.2050 H       
  64 H64           -0.6692     4.1277    -4.5663 H       
  65 H65           -2.0701    -2.5371     2.1689 H       
  66 H66           -1.2703    -1.2020     1.3052 H       
  67 H67            0.3791     5.9264    -5.8161 H       
  68 H68            1.9065     6.6488    -5.2563 H       
  69 H69           -4.8908    -1.7617    -2.8441 H       
  70 H70           -3.2194    -1.6171    -2.2493 H       
  71 H71           -3.0849    -4.0506    -2.0356 H       
  72 H72           -4.3132    -4.8757    -1.0463 H       
  73 H73           -4.7563    -4.1953    -2.6303 H       
  74 H74            3.1145     4.5733    -5.8744 H       
  75 H75            1.5871     3.8510    -6.4342 H       
  76 H76            4.2348     4.6593    -7.9797 H       
  77 H77            2.8944     3.6509    -8.5776 H       
  78 H78           -5.3592     3.9954    -1.6374 H       
  79 H79           -3.9394     3.3606    -2.5032 H       
  80 H80           -5.5770     3.0338    -3.1194 H       
  81 H81            2.0290     7.3692    -6.8611 H       
  82 H82            3.7266     6.8429    -6.9716 H       
  83 H83            1.8825     7.4993    -9.3149 H       
  84 H84            3.2477     8.4874    -8.7397 H       
  85 H85            4.1011     4.8207   -10.4324 H       
  86 H86            2.3921     5.3096   -10.3257 H       
  87 H87           -4.9416     3.9234     1.8439 H       
@<TRIPOS>BOND
   1    1   29 ar
   2    1    6 1
   3    1    5 ar
   4    2    3 ar
   5    2   29 ar
   6    2   47 1
   7    3    4 ar
   8    3    8 1
   9    4    5 ar
  10    4   44 1
  11    5   48 1
  12    6    7 1
  13    7   20 ar
  14    7   17 ar
  15    8    9 am
  16    8   18 1
  17    9   11 2
  18    9   10 1
  19   10   12 1
  20   10   24 1
  21   10   49 1
  22   12   15 1
  23   12   50 1
  24   12   51 1
  25   13   14 1
  26   13   24 1
  27   13   52 1
  28   13   53 1
  29   14   15 1
  30   14   16 1
  31   14   54 1
  32   15   55 1
  33   15   56 1
  34   16   57 1
  35   16   58 1
  36   16   59 1
  37   17   23 ar
  38   18   19 1
  39   18   26 1
  40   18   60 1
  41   19   34 1
  42   19   61 1
  43   19   62 1
  44   20   21 ar
  45   20   40 1
  46   21   22 ar
  47   21   63 1
  48   22   23 ar
  49   22   25 1
  50   23   64 1
  51   24   65 1
  52   24   66 1
  53   25   31 1
  54   25   67 1
  55   25   68 1
  56   26   27 1
  57   26   69 1
  58   26   70 1
  59   27   28 1
  60   28   71 1
  61   28   72 1
  62   28   73 1
  63   29   30 1
  64   31   32 1
  65   31   74 1
  66   31   75 1
  67   32   33 1
  68   32   36 1
  69   33   39 1
  70   33   76 1
  71   33   77 1
  72   34   35 1
  73   35   78 1
  74   35   79 1
  75   35   80 1
  76   36   37 1
  77   36   81 1
  78   36   82 1
  79   37   38 1
  80   37   83 1
  81   37   84 1
  82   38   39 1
  83   39   85 1
  84   39   86 1
  85   40   41 1
  86   40   42 1
  87   40   43 1
  88   44   45 2
  89   44   46 1
  90   46   87 1

#	End of record

