#	Name: ASD01418024
#	Creating user name:	WinNT
#	Creation time:	15. 06. 2019 19:20

#	Modifying user name:	WinNT
#	Modification time:	15. 06. 2019 19:20

#	Program:	/corina/corina34_cracker 3.40 0067  02.08.2006

@<TRIPOS>MOLECULE
ASD01418024
  80   85    0    0    0
SMALL
NO_CHARGES


@<TRIPOS>ATOM
   1 C1            -0.0726     1.6307     0.0527 C.3     
   2 C2            -0.1366     0.1320     0.1485 C.2     
   3 N3             1.3183     2.0878     0.0227 N.pl3   
   4 C4             2.2277     1.8602     1.0311 C.2     
   5 C5             2.1590     0.8972     2.1441 C.ar    
   6 C6             1.2972    -0.2050     2.1821 C.ar    
   7 C7             0.3847    -0.5756     1.1151 C.2     
   8 C8             1.9489     2.7867    -0.9714 C.ar    
   9 C9             3.1310     3.3345    -0.3938 C.ar    
  10 C10            3.3068     2.6867     0.8334 C.2     
  11 C11            1.7040     2.9763    -2.3234 C.ar    
  12 C12            2.6001     3.7977    -3.0317 C.ar    
  13 C13            3.5869     4.5365    -2.3789 C.ar    
  14 C14            3.8799     4.3199    -1.0580 C.ar    
  15 C15            4.4725     2.8644     1.7719 C.3     
  16 C16            5.2541     1.5527     1.8684 C.3     
  17 C17            5.3907     3.9674     1.2416 C.3     
  18 C18            6.5741     4.1478     2.1944 C.3     
  19 C19            7.3557     2.8361     2.2909 C.3     
  20 C20            6.4375     1.7331     2.8212 C.3     
  21 C21            3.0436     1.1180     3.2144 C.ar    
  22 C22            3.0579     0.2783     4.3010 C.ar    
  23 C23            2.1862    -0.8050     4.3564 C.ar    
  24 C24            1.3170    -1.0447     3.3146 C.ar    
  25 C25           -0.7618    -0.5414    -0.9835 C.2     
  26 O26           -1.4194     0.1157    -1.7691 O.2     
  27 N27           -0.6348    -1.8732    -1.1900 N.am    
  28 C28            1.4922     0.0179    -6.2035 C.3     
  29 N29            1.2487     1.1555    -7.1208 N.am    
  30 S30            1.9943     2.5994    -6.7403 S.o2    
  31 O31            3.3865     2.4028    -6.9459 O.2     
  32 O32            1.2451     3.6230    -7.3807 O.2     
  33 N33            1.7814     2.8102    -5.1002 N.am    
  34 C34            2.5559     3.7672    -4.5055 C.2     
  35 O35            3.1869     4.5668    -5.1696 O.2     
  36 C36            0.1492    -0.6079    -5.8235 C.3     
  37 C37            0.3302    -1.5434    -4.6254 C.3     
  38 C38           -0.6422    -1.1426    -3.5155 C.3     
  39 O39            2.1920    -1.6266     5.4386 O.3     
  40 C40            3.1187    -1.3186     6.4819 C.3     
  41 C41            0.3957     1.0195    -8.3040 C.3     
  42 C42           -0.8909    -2.3269    -2.5764 C.3     
  43 H43           -0.5773     1.9548    -0.8574 H       
  44 H44           -0.5763     2.0680     0.9148 H       
  45 H45            0.0855    -1.6133     1.1219 H       
  46 H46            0.8603     2.5120    -2.8125 H       
  47 H47            4.1306     5.2933    -2.9250 H       
  48 H48            4.6508     4.8812    -0.5509 H       
  49 H49            4.1046     3.1417     2.7598 H       
  50 H50            4.6000     0.7669     2.2462 H       
  51 H51            5.6220     1.2755     0.8805 H       
  52 H52            5.7585     3.6902     0.2537 H       
  53 H53            4.8338     4.9019     1.1729 H       
  54 H54            7.2282     4.9336     1.8166 H       
  55 H55            6.2062     4.4250     3.1823 H       
  56 H56            7.7236     2.5588     1.3030 H       
  57 H57            8.1988     2.9646     2.9697 H       
  58 H58            6.0697     2.0103     3.8091 H       
  59 H59            6.9944     0.7986     2.8899 H       
  60 H60            3.7204     1.9590     3.1817 H       
  61 H61            3.7466     0.4587     5.1132 H       
  62 H62            0.6425    -1.8866     3.3659 H       
  63 H63           -0.3927    -2.4875    -0.4795 H       
  64 H64            2.1138    -0.7261    -6.7016 H       
  65 H65            1.9960     0.3747    -5.3051 H       
  66 H66            1.1426     2.2828    -4.5955 H       
  67 H67           -0.5570     0.1807    -5.5636 H       
  68 H68           -0.2385    -1.1746    -6.6700 H       
  69 H69            0.1287    -2.5698    -4.9321 H       
  70 H70            1.3533    -1.4683    -4.2569 H       
  71 H71           -0.2200    -0.3138    -2.9473 H       
  72 H72           -1.5872    -0.8290    -3.9591 H       
  73 H73            2.9093    -0.3225     6.8716 H       
  74 H74            3.0197    -2.0506     7.2835 H       
  75 H75            4.1340    -1.3481     6.0864 H       
  76 H76           -0.6338     1.2606    -8.0395 H       
  77 H77            0.7406     1.7018    -9.0809 H       
  78 H78            0.4458    -0.0053    -8.6722 H       
  79 H79           -0.2149    -3.1443    -2.8273 H       
  80 H80           -1.9243    -2.6607    -2.6699 H       
@<TRIPOS>BOND
   1    1    2 1
   2    1    3 1
   3    1   43 1
   4    1   44 1
   5    2   25 1
   6    2    7 2
   7    3    4 1
   8    3    8 1
   9    4    5 1
  10    4   10 2
  11    5    6 ar
  12    5   21 ar
  13    6    7 1
  14    6   24 ar
  15    7   45 1
  16    8    9 ar
  17    8   11 ar
  18    9   10 1
  19    9   14 ar
  20   10   15 1
  21   11   12 ar
  22   11   46 1
  23   12   13 ar
  24   12   34 1
  25   13   14 ar
  26   13   47 1
  27   14   48 1
  28   15   16 1
  29   15   17 1
  30   15   49 1
  31   16   20 1
  32   16   50 1
  33   16   51 1
  34   17   18 1
  35   17   52 1
  36   17   53 1
  37   18   19 1
  38   18   54 1
  39   18   55 1
  40   19   20 1
  41   19   56 1
  42   19   57 1
  43   20   58 1
  44   20   59 1
  45   21   22 ar
  46   21   60 1
  47   22   23 ar
  48   22   61 1
  49   23   24 ar
  50   23   39 1
  51   24   62 1
  52   25   26 2
  53   25   27 am
  54   27   42 1
  55   27   63 1
  56   28   29 1
  57   28   36 1
  58   28   64 1
  59   28   65 1
  60   29   30 am
  61   29   41 1
  62   30   31 2
  63   30   32 2
  64   30   33 am
  65   33   34 am
  66   33   66 1
  67   34   35 2
  68   36   37 1
  69   36   67 1
  70   36   68 1
  71   37   38 1
  72   37   69 1
  73   37   70 1
  74   38   42 1
  75   38   71 1
  76   38   72 1
  77   39   40 1
  78   40   73 1
  79   40   74 1
  80   40   75 1
  81   41   76 1
  82   41   77 1
  83   41   78 1
  84   42   79 1
  85   42   80 1

#	End of record

