#	Name: ASD01230138
#	Creating user name:	WinNT
#	Creation time:	15. 06. 2019 19:11

#	Modifying user name:	WinNT
#	Modification time:	15. 06. 2019 19:11

#	Program:	/corina/corina34_cracker 3.40 0067  02.08.2006

@<TRIPOS>MOLECULE
ASD01230138
  77   81    0    0    0
SMALL
NO_CHARGES


@<TRIPOS>ATOM
   1 C1            -0.0162     1.3436     0.0094 C.2     
   2 N2             0.0021    -0.0041     0.0020 N.am    
   3 O3             1.0343     1.9693     0.0028 O.co2   
   4 O4            -1.0833     1.9405     0.0177 O.co2   
   5 C5             3.5183    -0.6438    -0.0346 C.2     
   6 N6             2.3494    -0.0043    -0.0204 N.2     
   7 C7             1.2087    -0.6790    -0.0131 C.2     
   8 C8             1.2321    -2.0871    -0.0204 C.2     
   9 C9             2.4283    -2.7240    -0.0348 C.2     
  10 N10            3.5743    -1.9883    -0.0419 N.am    
  11 O11            4.5543     0.0000    -0.0461 O.2     
  12 O12            5.7057    -2.1911     1.0241 O.3     
  13 C13            4.8742    -2.6637    -0.0574 C.3     
  14 C14            5.6758    -2.2756    -1.3260 C.3     
  15 C15            7.1362    -2.5199    -0.8742 C.3     
  16 C16            7.0669    -2.4816     0.6648 C.3     
  17 C17            7.9913    -1.3863     1.2001 C.3     
  18 O18            7.9969    -1.4237     2.6286 O.3     
  19 P19            8.8639    -0.4089     3.5290 P.3     
  20 O20            8.6171     0.9805     3.0827 O.2     
  21 O21            8.4345    -0.5608     5.0732 O.3     
  22 C22            8.8610     0.4556     5.8681 C.ar    
  23 C23            8.0636     1.5760     6.0512 C.ar    
  24 C24            8.4994     2.6079     6.8597 C.ar    
  25 C25            9.7293     2.5247     7.4861 C.ar    
  26 C26           10.5261     1.4094     7.3048 C.ar    
  27 C27           10.0921     0.3721     6.5023 C.ar    
  28 N28           10.4995    -0.7692     3.3634 N.3     
  29 N29           11.8645    -3.9027     2.6894 N.am    
  30 C30           10.8040    -3.0806     2.6103 C.2     
  31 C31           10.7824    -2.1437     3.7979 C.3     
  32 C32           12.2094    -2.2427     4.3851 C.3     
  33 C33           12.6541    -3.6397     3.8982 C.3     
  34 O34            9.9841    -3.0884     1.7167 O.2     
  35 C35           12.1873    -4.9330     1.6992 C.3     
  36 F36            5.3405    -3.1050    -2.4016 F       
  37 F37            5.4727    -0.9305    -1.6528 F       
  38 O38            7.5986    -3.8187    -1.3299 O.3     
  39 C39            8.2174    -3.8624    -2.5236 C.2     
  40 O40            8.3673    -2.8437    -3.1674 O.2     
  41 O41            8.6702    -5.0345    -3.0041 O.3     
  42 C42            9.3278    -5.0066    -4.2983 C.3     
  43 C43            9.7641    -6.4002    -4.6704 C.ar    
  44 C44            8.9115    -7.2251    -5.3799 C.ar    
  45 C45            9.3117    -8.5035    -5.7211 C.ar    
  46 C46           10.5647    -8.9569    -5.3531 C.ar    
  47 C47           11.4176    -8.1316    -4.6444 C.ar    
  48 C48           11.0191    -6.8517    -4.3069 C.ar    
  49 H49           -0.8313    -0.5005     0.0073 H       
  50 H50            0.3109    -2.6508    -0.0143 H       
  51 H51            2.4722    -3.8031    -0.0403 H       
  52 H52            4.7469    -3.7447     0.0004 H       
  53 H53            7.7880    -1.7297    -1.2465 H       
  54 H54            7.3597    -3.4488     1.0732 H       
  55 H55            9.0027    -1.5506     0.8283 H       
  56 H56            7.6342    -0.4129     0.8636 H       
  57 H57            7.1030     1.6415     5.5619 H       
  58 H58            7.8792     3.4804     7.0023 H       
  59 H59           10.0682     3.3325     8.1177 H       
  60 H60           11.4866     1.3471     7.7946 H       
  61 H61           10.7127    -0.5010     6.3648 H       
  62 H62           10.8086    -0.6191     2.4147 H       
  63 H63           10.0433    -2.4714     4.5290 H       
  64 H64           12.8539    -1.4641     3.9773 H       
  65 H65           12.1871    -2.1980     5.4740 H       
  66 H66           12.4400    -4.3902     4.6592 H       
  67 H67           13.7178    -3.6354     3.6605 H       
  68 H68           11.4403    -4.9209     0.9055 H       
  69 H69           13.1714    -4.7337     1.2750 H       
  70 H70           12.1904    -5.9111     2.1803 H       
  71 H71            8.6342    -4.6301    -5.0502 H       
  72 H72           10.1995    -4.3540    -4.2490 H       
  73 H73            7.9325    -6.8710    -5.6674 H       
  74 H74            8.6453    -9.1483    -6.2748 H       
  75 H75           10.8771    -9.9559    -5.6191 H       
  76 H76           12.3965    -8.4859    -4.3566 H       
  77 H77           11.6869    -6.2057    -3.7564 H       
@<TRIPOS>BOND
   1    1    2 am
   2    1    3 ar
   3    1    4 ar
   4    2    7 1
   5    2   49 1
   6    5    6 1
   7    5   10 am
   8    5   11 2
   9    6    7 2
  10    7    8 1
  11    8    9 2
  12    8   50 1
  13    9   10 1
  14    9   51 1
  15   10   13 1
  16   12   13 1
  17   12   16 1
  18   13   14 1
  19   13   52 1
  20   14   15 1
  21   14   36 1
  22   14   37 1
  23   15   16 1
  24   15   38 1
  25   15   53 1
  26   16   17 1
  27   16   54 1
  28   17   18 1
  29   17   55 1
  30   17   56 1
  31   18   19 1
  32   19   20 2
  33   19   21 1
  34   19   28 1
  35   21   22 1
  36   22   23 ar
  37   22   27 ar
  38   23   24 ar
  39   23   57 1
  40   24   25 ar
  41   24   58 1
  42   25   26 ar
  43   25   59 1
  44   26   27 ar
  45   26   60 1
  46   27   61 1
  47   28   31 1
  48   28   62 1
  49   29   30 am
  50   29   33 1
  51   29   35 1
  52   30   31 1
  53   30   34 2
  54   31   32 1
  55   31   63 1
  56   32   33 1
  57   32   64 1
  58   32   65 1
  59   33   66 1
  60   33   67 1
  61   35   68 1
  62   35   69 1
  63   35   70 1
  64   38   39 1
  65   39   40 2
  66   39   41 1
  67   41   42 1
  68   42   43 1
  69   42   71 1
  70   42   72 1
  71   43   44 ar
  72   43   48 ar
  73   44   45 ar
  74   44   73 1
  75   45   46 ar
  76   45   74 1
  77   46   47 ar
  78   46   75 1
  79   47   48 ar
  80   47   76 1
  81   48   77 1

#	End of record

