#	Name: ASD01913071
#	Creating user name:	WinNT
#	Creation time:	15. 06. 2019 20:00

#	Modifying user name:	WinNT
#	Modification time:	15. 06. 2019 20:00

#	Program:	/corina/corina34_cracker 3.40 0067  02.08.2006

@<TRIPOS>MOLECULE
ASD01913071
  38   40    0    0    0
SMALL
NO_CHARGES


@<TRIPOS>ATOM
   1 N1            -0.0179     1.4653     0.0101 N.3     
   2 C2             0.0021    -0.0041     0.0020 C.3     
   3 C3             0.7337    -0.4948    -1.2495 C.3     
   4 N4             2.0995     0.0476    -1.2596 N.3     
   5 C5             2.0796     1.5170    -1.2515 C.3     
   6 C6             1.3479     2.0078    -0.0000 C.3     
   7 C7             2.2338    -1.3148    -3.2541 C.ar    
   8 C8             2.8227    -0.4373    -2.3522 C.ar    
   9 C9             4.1446    -0.0479    -2.5537 C.ar    
  10 C10            4.8200    -0.5553    -3.6517 C.ar    
  11 C11            4.1656    -1.4244    -4.5046 C.ar    
  12 N12            2.9129    -1.7738    -4.2860 N.ar    
  13 C13           -0.7783     1.9752     1.1589 C.3     
  14 C14           -0.5745     3.4638     1.2755 C.ar    
  15 C15           -1.4278     4.3317     0.6201 C.ar    
  16 C16           -1.2408     5.6971     0.7270 C.ar    
  17 C17           -0.2008     6.1947     1.4897 C.ar    
  18 C18            0.6520     5.3269     2.1458 C.ar    
  19 C19            0.4624     3.9615     2.0424 C.ar    
  20 H20            0.5192    -0.3656     0.8908 H       
  21 H21           -1.0204    -0.3816    -0.0030 H       
  22 H22            0.7751    -1.5840    -1.2430 H       
  23 H23            0.2013    -0.1561    -2.1383 H       
  24 H24            3.1021     1.8946    -1.2465 H       
  25 H25            1.5625     1.8786    -2.1404 H       
  26 H26            1.3066     3.0970    -0.0066 H       
  27 H27            1.8803     1.6690     0.8887 H       
  28 H28            1.2107    -1.6273    -3.1055 H       
  29 H29            4.6310     0.6332    -1.8711 H       
  30 H30            5.8459    -0.2748    -3.8394 H       
  31 H31            4.6875    -1.8225    -5.3622 H       
  32 H32           -1.8380     1.7637     1.0160 H       
  33 H33           -0.4303     1.4884     2.0699 H       
  34 H34           -2.2403     3.9429     0.0242 H       
  35 H35           -1.9070     6.3752     0.2144 H       
  36 H36           -0.0542     7.2615     1.5726 H       
  37 H37            1.4647     5.7156     2.7414 H       
  38 H38            1.1264     3.2835     2.5580 H       
@<TRIPOS>BOND
   1    1    2 1
   2    1    6 1
   3    1   13 1
   4    2    3 1
   5    2   20 1
   6    2   21 1
   7    3    4 1
   8    3   22 1
   9    3   23 1
  10    4    5 1
  11    4    8 1
  12    5    6 1
  13    5   24 1
  14    5   25 1
  15    6   26 1
  16    6   27 1
  17    7    8 ar
  18    7   12 ar
  19    7   28 1
  20    8    9 ar
  21    9   10 ar
  22    9   29 1
  23   10   11 ar
  24   10   30 1
  25   11   12 ar
  26   11   31 1
  27   13   14 1
  28   13   32 1
  29   13   33 1
  30   14   15 ar
  31   14   19 ar
  32   15   16 ar
  33   15   34 1
  34   16   17 ar
  35   16   35 1
  36   17   18 ar
  37   17   36 1
  38   18   19 ar
  39   18   37 1
  40   19   38 1

#	End of record

