#	Name: ASD01903021
#	Creating user name:	WinNT
#	Creation time:	15. 06. 2019 19:54

#	Modifying user name:	WinNT
#	Modification time:	15. 06. 2019 19:54

#	Program:	/corina/corina34_cracker 3.40 0067  02.08.2006

@<TRIPOS>MOLECULE
ASD01903021
  28   29    0    0    0
SMALL
NO_CHARGES


@<TRIPOS>ATOM
   1 C1            -0.0227     1.3849     0.0175 C.ar    
   2 C2            -0.0078    -0.0008     0.0156 C.ar    
   3 C3             1.2021    -0.6811     0.0041 C.ar    
   4 C4             2.3919     0.0215    -0.0051 C.ar    
   5 C5             2.3814     1.4030    -0.0028 C.ar    
   6 C6             1.1736     2.0893     0.0078 C.ar    
   7 N7             1.1628     3.4873     0.0101 N.am    
   8 C8             0.1939     4.1549    -0.6472 C.2     
   9 O9            -0.6131     3.5462    -1.3213 O.2     
  10 C10            0.1128     5.6334    -0.5477 C.ar    
  11 O11           -1.1771    -0.6932     0.0255 O.3     
  12 N12            0.9911     6.3111     0.1875 N.ar    
  13 C13            0.9228     7.6221     0.2779 C.ar    
  14 N14           -0.0073     8.3166    -0.3480 N.ar    
  15 C15           -0.9166     7.7176    -1.0980 C.ar    
  16 C16           -0.8821     6.3367    -1.2282 C.ar    
  17 C17           -1.0866    -2.1194     0.0229 C.3     
  18 H18           -0.9631     1.9159     0.0220 H       
  19 H19            1.2135    -1.7610     0.0026 H       
  20 H20            3.3318    -0.5103    -0.0138 H       
  21 H21            3.3127     1.9498    -0.0097 H       
  22 H22            1.8526     3.9769     0.4849 H       
  23 H23            1.6494     8.1445     0.8824 H       
  24 H24           -1.6739     8.2962    -1.6061 H       
  25 H25           -1.6109     5.8189    -1.8341 H       
  26 H26           -2.0891    -2.5471     0.0316 H       
  27 H27           -0.5590    -2.4483    -0.8724 H       
  28 H28           -0.5425    -2.4505     0.9075 H       
@<TRIPOS>BOND
   1    1    2 ar
   2    1    6 ar
   3    1   18 1
   4    2    3 ar
   5    2   11 1
   6    3    4 ar
   7    3   19 1
   8    4    5 ar
   9    4   20 1
  10    5    6 ar
  11    5   21 1
  12    6    7 1
  13    7    8 am
  14    7   22 1
  15    8    9 2
  16    8   10 1
  17   10   12 ar
  18   10   16 ar
  19   11   17 1
  20   12   13 ar
  21   13   14 ar
  22   13   23 1
  23   14   15 ar
  24   15   16 ar
  25   15   24 1
  26   16   25 1
  27   17   26 1
  28   17   27 1
  29   17   28 1

#	End of record

