#	Name: ASD04882388
#	Creating user name:	WinNT
#	Creation time:	15. 06. 2019 20:54

#	Modifying user name:	WinNT
#	Modification time:	15. 06. 2019 20:54

#	Program:	/corina/corina34_cracker 3.40 0067  02.08.2006

@<TRIPOS>MOLECULE
ASD04882388
  80   85    0    0    0
SMALL
NO_CHARGES


@<TRIPOS>ATOM
   1 N1            -0.0169     1.3968     0.0097 N.am    
   2 C2             0.1115     0.0024    -0.0348 C.ar    
   3 C3            -1.0248    -0.8075     0.0445 C.ar    
   4 C4            -0.8988    -2.1913     0.0005 C.ar    
   5 C5             0.3454    -2.7690    -0.1219 C.ar    
   6 C6             1.4858    -1.9649    -0.2021 C.ar    
   7 C7             1.3615    -0.5733    -0.1629 C.ar    
   8 N8            -2.2847    -0.2276     0.1683 N.3     
   9 C9            -3.1502    -0.6030    -0.9585 C.3     
  10 C10           -2.9070    -0.5885     1.4497 C.3     
  11 C11           -4.2517     0.1305     1.5812 C.3     
  12 N12           -5.1172    -0.2450     0.4544 N.3     
  13 C13           -4.4949     0.1160    -0.8270 C.3     
  14 C14            2.8185    -2.5841    -0.3327 C.2     
  15 O15            3.8100    -1.8838    -0.4024 O.2     
  16 C16            0.9199     2.1785    -0.5629 C.2     
  17 C17            0.7418     3.6339    -0.5934 C.2     
  18 O18            1.9137     1.6765    -1.0545 O.2     
  19 C19           -6.3810     0.3367     0.5786 C.ar    
  20 C20           -6.5097     1.7189     0.6233 C.ar    
  21 C21           -7.5127    -0.4659     0.6519 C.ar    
  22 C22           -8.7605     0.1124     0.7746 C.ar    
  23 C23           -8.8847     1.4890     0.8241 C.ar    
  24 C24           -7.7610     2.2909     0.7461 C.ar    
  25 C25           -0.3114     4.3219    -0.0854 C.2     
  26 S26            1.8611     4.8032    -1.2899 S.3     
  27 C27            0.8179     6.0818    -0.8436 C.2     
  28 N28           -0.2301     5.6195    -0.2412 N.2     
  29 N29            2.9369    -3.9260    -0.3747 N.am    
  30 C30            4.1150    -6.0638    -0.5276 C.3     
  31 C31            4.2603    -4.5408    -0.5043 C.3     
  32 C32           -7.3785    -1.9659     0.5970 C.3     
  33 C33            1.0836     7.5413    -1.1092 C.3     
  34 C34            0.0701     8.2987    -1.9694 C.3     
  35 C35            0.1418     8.5597    -0.4636 C.3     
  36 C36            5.4971    -6.7059    -0.6630 C.3     
  37 N37            5.3581    -8.1641    -0.6853 N.am    
  38 C38            5.1744    -8.9599    -1.9048 C.3     
  39 C39            4.6488   -10.3315    -1.4265 C.3     
  40 C40            5.2007   -10.3950     0.0165 C.3     
  41 C41            5.3880    -8.9457     0.4079 C.2     
  42 O42            5.5361    -8.5463     1.5434 O.2     
  43 H43           -0.7822     1.7996     0.4491 H       
  44 H44           -1.7785    -2.8146     0.0627 H       
  45 H45            0.4400    -3.8444    -0.1554 H       
  46 H46            2.2409     0.0506    -0.2250 H       
  47 H47           -2.6735    -0.3143    -1.8952 H       
  48 H48           -3.3118    -1.6810    -0.9495 H       
  49 H49           -3.0658    -1.6663     1.4861 H       
  50 H50           -2.2530    -0.2892     2.2687 H       
  51 H51           -4.7284    -0.1583     2.5179 H       
  52 H52           -4.0901     1.2084     1.5722 H       
  53 H53           -4.3361     1.1937    -0.8634 H       
  54 H54           -5.1490    -0.1834    -1.6460 H       
  55 H55           -5.6324     2.3458     0.5624 H       
  56 H56           -9.6407    -0.5109     0.8316 H       
  57 H57           -9.8619     1.9388     0.9194 H       
  58 H58           -7.8614     3.3655     0.7851 H       
  59 H59           -1.1449     3.8408     0.4049 H       
  60 H60            2.1459    -4.4847    -0.3190 H       
  61 H61            3.6481    -6.3984     0.3987 H       
  62 H62            3.4938    -6.3566    -1.3741 H       
  63 H63            4.7272    -4.2062    -1.4306 H       
  64 H64            4.8815    -4.2480     0.3421 H       
  65 H65           -7.2589    -2.3572     1.6073 H       
  66 H66           -8.2730    -2.3944     0.1450 H       
  67 H67           -6.5066    -2.2311    -0.0010 H       
  68 H68            2.1334     7.8177    -1.2075 H       
  69 H69            0.4530     9.0737    -2.6334 H       
  70 H70           -0.7889     7.7414    -2.3432 H       
  71 H71           -0.6699     8.1741     0.1533 H       
  72 H72            0.5720     9.5064    -0.1368 H       
  73 H73            5.9641    -6.3712    -1.5894 H       
  74 H74            6.1183    -6.4131     0.1834 H       
  75 H75            4.4447    -8.4837    -2.5596 H       
  76 H76            6.1256    -9.0804    -2.4233 H       
  77 H77            3.5590   -10.3540    -1.4287 H       
  78 H78            5.0553   -11.1390    -2.0355 H       
  79 H79            4.4843   -10.8821     0.6779 H       
  80 H80            6.1568   -10.9181     0.0366 H       
@<TRIPOS>BOND
   1    1    2 1
   2    1   16 am
   3    1   43 1
   4    2    3 ar
   5    2    7 ar
   6    3    4 ar
   7    3    8 1
   8    4    5 ar
   9    4   44 1
  10    5    6 ar
  11    5   45 1
  12    6    7 ar
  13    6   14 1
  14    7   46 1
  15    8    9 1
  16    8   10 1
  17    9   13 1
  18    9   47 1
  19    9   48 1
  20   10   11 1
  21   10   49 1
  22   10   50 1
  23   11   12 1
  24   11   51 1
  25   11   52 1
  26   12   13 1
  27   12   19 1
  28   13   53 1
  29   13   54 1
  30   14   15 2
  31   14   29 am
  32   16   18 2
  33   16   17 1
  34   17   25 2
  35   17   26 1
  36   19   20 ar
  37   19   21 ar
  38   20   24 ar
  39   20   55 1
  40   21   22 ar
  41   21   32 1
  42   22   23 ar
  43   22   56 1
  44   23   24 ar
  45   23   57 1
  46   24   58 1
  47   25   28 1
  48   25   59 1
  49   26   27 1
  50   27   28 2
  51   27   33 1
  52   29   31 1
  53   29   60 1
  54   30   31 1
  55   30   36 1
  56   30   61 1
  57   30   62 1
  58   31   63 1
  59   31   64 1
  60   32   65 1
  61   32   66 1
  62   32   67 1
  63   33   34 1
  64   33   35 1
  65   33   68 1
  66   34   35 1
  67   34   69 1
  68   34   70 1
  69   35   71 1
  70   35   72 1
  71   36   37 1
  72   36   73 1
  73   36   74 1
  74   37   38 1
  75   37   41 am
  76   38   39 1
  77   38   75 1
  78   38   76 1
  79   39   40 1
  80   39   77 1
  81   39   78 1
  82   40   41 1
  83   40   79 1
  84   40   80 1
  85   41   42 2

#	End of record

