#	Name: ASD02198016
#	Creating user name:	WinNT
#	Creation time:	15. 06. 2019 20:18

#	Modifying user name:	WinNT
#	Modification time:	15. 06. 2019 20:18

#	Program:	/corina/corina34_cracker 3.40 0067  02.08.2006

@<TRIPOS>MOLECULE
ASD02198016
  24   25    0    0    0
SMALL
NO_CHARGES


@<TRIPOS>ATOM
   1 C1            -0.0178     1.4598     0.0101 C.2     
   2 C2             0.0021    -0.0041     0.0020 C.2     
   3 N3            -1.1552    -0.6830     0.0094 N.am    
   4 C4            -2.3739    -0.0405     0.0239 C.2     
   5 C5            -2.4391     1.3498     0.0320 C.2     
   6 C6            -1.2435     2.1091     0.0311 C.2     
   7 O7             1.0632    -0.6023    -0.0117 O.2     
   8 S8            -3.9407    -0.7271     0.0335 S.3     
   9 C9            -4.7298     0.8359     0.0488 C.2     
  10 C10           -3.8118     1.8372     0.0464 C.2     
  11 C11           -6.1309     1.0293     0.0611 C.2     
  12 O12           -6.5899     2.1576     0.0708 O.2     
  13 N13           -6.9581    -0.0348     0.0621 N.am    
  14 N14           -4.1464     3.1827     0.0566 N.pl3   
  15 C15            1.2349     2.2255     0.0022 C.2     
  16 O16            1.2045     3.4410     0.0090 O.2     
  17 O17            2.4190     1.5808    -0.0125 O.3     
  18 H18           -1.1332    -1.6527     0.0039 H       
  19 H19           -1.2859     3.1883     0.0373 H       
  20 H20           -6.5926    -0.9332     0.0544 H       
  21 H21           -7.9189     0.0979     0.0705 H       
  22 H22           -5.0786     3.4506     0.0657 H       
  23 H23           -3.4482     3.8561     0.0547 H       
  24 H24            3.2165     2.1276    -0.0172 H       
@<TRIPOS>BOND
   1    1    2 1
   2    1   15 1
   3    1    6 2
   4    2    3 am
   5    2    7 2
   6    3    4 1
   7    3   18 1
   8    4    5 2
   9    4    8 1
  10    5    6 1
  11    5   10 1
  12    6   19 1
  13    8    9 1
  14    9   10 2
  15    9   11 1
  16   10   14 1
  17   11   12 2
  18   11   13 am
  19   13   20 1
  20   13   21 1
  21   14   22 1
  22   14   23 1
  23   15   16 2
  24   15   17 1
  25   17   24 1

#	End of record

