#	Name: ASD00431121
#	Creating user name:	WinNT
#	Creation time:	15. 06. 2019 18:35

#	Modifying user name:	WinNT
#	Modification time:	15. 06. 2019 18:35

#	Program:	/corina/corina34_cracker 3.40 0067  02.08.2006

@<TRIPOS>MOLECULE
ASD00431121
  50   52    0    0    0
SMALL
NO_CHARGES


@<TRIPOS>ATOM
   1 N1             0.4808     1.3162    -0.0718 N.am    
   2 C2             0.4914    -0.0315    -0.0690 C.2     
   3 O3             1.5457    -0.6310     0.0170 O.2     
   4 N4            -0.6666    -0.7147    -0.1617 N.am    
   5 C5            -0.6551    -2.1797    -0.1587 C.3     
   6 C6             1.7396     2.0588     0.0289 C.3     
   7 C7             2.3571     2.2070    -1.3631 C.3     
   8 O8             0.4299     4.2209     0.3299 O.3     
   9 N9             0.4795     5.2600     0.9460 N.2     
  10 C10            1.5438     5.3104     1.7132 C.2     
  11 C11            2.2368     4.0822     1.5068 C.2     
  12 C12            1.4724     3.4243     0.6077 C.2     
  13 S13            3.3785     6.4578     3.6276 S.3     
  14 C14            2.9430     8.0099     4.1962 C.2     
  15 N15            1.8341     8.3968     3.6446 N.2     
  16 C16            1.2698     7.5714     2.7906 C.2     
  17 C17            1.9420     6.4156     2.6084 C.2     
  18 O18            3.6539     8.7326     5.0942 O.3     
  19 C19            3.2333     9.9950     5.3739 C.ar    
  20 C20            2.0316    10.1946     6.0378 C.ar    
  21 C21            1.6044    11.4770     6.3218 C.ar    
  22 C22            2.3768    12.5652     5.9433 C.ar    
  23 C23            3.5783    12.3656     5.2794 C.ar    
  24 C24            4.0084    11.0832     5.0004 C.ar    
  25 O25            1.9559    13.8276     6.2225 O.3     
  26 C26            2.8378    14.8972     5.8754 C.3     
  27 C27            2.0348    16.1902     5.7200 C.3     
  28 C28            3.8826    15.0752     6.9788 C.3     
  29 H29           -0.3600     1.7945    -0.1445 H       
  30 H30           -1.5078    -0.2365    -0.2303 H       
  31 H31           -1.6766    -2.5512    -0.2407 H       
  32 H32           -0.0684    -2.5401    -1.0036 H       
  33 H33           -0.2118    -2.5376     0.7706 H       
  34 H34            2.4296     1.5182     0.6768 H       
  35 H35            1.6671     2.7476    -2.0110 H       
  36 H36            3.2937     2.7595    -1.2882 H       
  37 H37            2.5504     1.2193    -1.7818 H       
  38 H38            3.1589     3.7537     1.9631 H       
  39 H39            0.3466     7.7992     2.2785 H       
  40 H40            1.4301     9.3474     6.3323 H       
  41 H41            0.6688    11.6325     6.8384 H       
  42 H42            4.1794    13.2130     4.9844 H       
  43 H43            4.9460    10.9276     4.4875 H       
  44 H44            3.3381    14.6649     4.9353 H       
  45 H45            1.5345    16.4224     6.6601 H       
  46 H46            2.7074    17.0060     5.4552 H       
  47 H47            1.2904    16.0634     4.9339 H       
  48 H48            4.4547    14.1540     7.0895 H       
  49 H49            4.5553    15.8910     6.7140 H       
  50 H50            3.3823    15.3074     7.9189 H       
@<TRIPOS>BOND
   1    1    2 am
   2    1    6 1
   3    1   29 1
   4    2    3 2
   5    2    4 am
   6    4    5 1
   7    4   30 1
   8    5   31 1
   9    5   32 1
  10    5   33 1
  11    6    7 1
  12    6   12 1
  13    6   34 1
  14    7   35 1
  15    7   36 1
  16    7   37 1
  17    8    9 1
  18    8   12 1
  19    9   10 2
  20   10   11 1
  21   10   17 1
  22   11   12 2
  23   11   38 1
  24   13   14 1
  25   13   17 1
  26   14   15 2
  27   14   18 1
  28   15   16 1
  29   16   17 2
  30   16   39 1
  31   18   19 1
  32   19   20 ar
  33   19   24 ar
  34   20   21 ar
  35   20   40 1
  36   21   22 ar
  37   21   41 1
  38   22   23 ar
  39   22   25 1
  40   23   24 ar
  41   23   42 1
  42   24   43 1
  43   25   26 1
  44   26   27 1
  45   26   28 1
  46   26   44 1
  47   27   45 1
  48   27   46 1
  49   27   47 1
  50   28   48 1
  51   28   49 1
  52   28   50 1

#	End of record

