#	Name: ASD01911820
#	Creating user name:	WinNT
#	Creation time:	15. 06. 2019 19:58

#	Modifying user name:	WinNT
#	Modification time:	15. 06. 2019 19:58

#	Program:	/corina/corina34_cracker 3.40 0067  02.08.2006

@<TRIPOS>MOLECULE
ASD01911820
  54   57    0    0    0
SMALL
NO_CHARGES


@<TRIPOS>ATOM
   1 C1             0.1450     0.8353    -1.0281 C.2     
   2 N2             0.0465    -0.3417    -0.3320 N.pl3   
   3 C3             1.2090    -1.0304    -0.0064 C.2     
   4 C4             2.4532    -0.4832    -0.4100 C.2     
   5 C5             2.4535     0.6866    -1.0953 C.2     
   6 N6             1.3018     1.3104    -1.3837 N.2     
   7 C7             0.8696    -2.1577     0.6775 C.2     
   8 C8            -0.5445    -2.1772     0.7840 C.2     
   9 C9            -1.0201    -1.0362     0.1469 C.2     
  10 C10           -1.3547    -3.2091     1.4431 C.2     
  11 O11           -2.5672    -3.1086     1.4652 O.2     
  12 N12           -0.7555    -4.2676     2.0236 N.am    
  13 N13           -2.3496    -0.6703     0.0222 N.pl3   
  14 C14           -2.8412     0.4351     0.7288 C.ar    
  15 C15           -4.1922     0.7605     0.6594 C.ar    
  16 C16           -4.6762     1.8506     1.3570 C.ar    
  17 C17           -3.8133     2.6210     2.1273 C.ar    
  18 C18           -2.4647     2.2954     2.1954 C.ar    
  19 C19           -1.9815     1.2024     1.5028 C.ar    
  20 S20           -4.4300     4.0112     3.0170 S.3     
  21 F21           -5.0302     0.0113    -0.0900 F       
  22 O22           -1.5369    -5.2628     2.6592 O.3     
  23 C23           -0.7715    -6.3255     3.2311 C.3     
  24 C24           -1.7137    -7.3369     3.8870 C.3     
  25 C25           -0.9091    -8.4364     4.6244 C.3     
  26 C26           -2.9485     4.6594     3.8390 C.3     
  27 O27           -1.8378    -9.5469     4.5998 O.3     
  28 C28           -2.5032    -9.4416     3.3299 C.3     
  29 O29           -2.4401    -8.0796     2.8870 O.3     
  30 C30           -1.8097   -10.3466     2.3097 C.3     
  31 C31           -3.9654    -9.8665     3.4790 C.3     
  32 H32           -0.7535     1.3746    -1.2892 H       
  33 H33            3.3797    -0.9867    -0.1766 H       
  34 H34            3.3904     1.1206    -1.4117 H       
  35 H35            1.5510    -2.8999     1.0665 H       
  36 H36            0.2111    -4.3477     2.0059 H       
  37 H37           -2.9407    -1.1793    -0.5543 H       
  38 H38           -5.7247     2.1041     1.3034 H       
  39 H39           -1.7943     2.8948     2.7936 H       
  40 H40           -0.9337     0.9471     1.5601 H       
  41 H41           -0.1952    -6.8199     2.4490 H       
  42 H42           -0.0928    -5.9212     3.9820 H       
  43 H43           -2.3982    -6.8360     4.5715 H       
  44 H44            0.0051    -8.6802     4.0832 H       
  45 H45           -0.6864    -8.1365     5.6483 H       
  46 H46           -2.2086     4.9371     3.0883 H       
  47 H47           -3.2146     5.5366     4.4287 H       
  48 H48           -2.5320     3.8940     4.4939 H       
  49 H49           -1.8718   -11.3829     2.6418 H       
  50 H50           -2.3001   -10.2453     1.3415 H       
  51 H51           -0.7630   -10.0563     2.2188 H       
  52 H52           -4.4536    -9.2344     4.2207 H       
  53 H53           -4.4739    -9.7612     2.5206 H       
  54 H54           -4.0105   -10.9066     3.8018 H       
@<TRIPOS>BOND
   1    1    2 1
   2    1    6 2
   3    1   32 1
   4    2    3 1
   5    2    9 1
   6    3    4 1
   7    3    7 2
   8    4    5 2
   9    4   33 1
  10    5    6 1
  11    5   34 1
  12    7    8 1
  13    7   35 1
  14    8    9 2
  15    8   10 1
  16    9   13 1
  17   10   11 2
  18   10   12 am
  19   12   22 1
  20   12   36 1
  21   13   14 1
  22   13   37 1
  23   14   15 ar
  24   14   19 ar
  25   15   16 ar
  26   15   21 1
  27   16   17 ar
  28   16   38 1
  29   17   18 ar
  30   17   20 1
  31   18   19 ar
  32   18   39 1
  33   19   40 1
  34   20   26 1
  35   22   23 1
  36   23   24 1
  37   23   41 1
  38   23   42 1
  39   24   25 1
  40   24   29 1
  41   24   43 1
  42   25   27 1
  43   25   44 1
  44   25   45 1
  45   26   46 1
  46   26   47 1
  47   26   48 1
  48   27   28 1
  49   28   29 1
  50   28   30 1
  51   28   31 1
  52   30   49 1
  53   30   50 1
  54   30   51 1
  55   31   52 1
  56   31   53 1
  57   31   54 1

#	End of record

