#	Name: ASD01028215
#	Creating user name:	WinNT
#	Creation time:	15. 06. 2019 18:56

#	Modifying user name:	WinNT
#	Modification time:	15. 06. 2019 18:56

#	Program:	/corina/corina34_cracker 3.40 0067  02.08.2006

@<TRIPOS>MOLECULE
ASD01028215
  47   51    0    0    0
SMALL
NO_CHARGES


@<TRIPOS>ATOM
   1 C1            -0.0166     1.3719     0.0096 C.ar    
   2 C2             0.0021    -0.0041     0.0020 C.ar    
   3 C3             1.1750     2.1035     0.0021 C.ar    
   4 C4             2.3797     1.4715    -0.0128 C.ar    
   5 C5             2.4326     0.0695    -0.0208 C.ar    
   6 C6             1.2322    -0.6815    -0.0134 C.ar    
   7 C7             3.6676    -0.6170    -0.0367 C.ar    
   8 C8             3.6411    -2.0003    -0.0444 C.ar    
   9 C9             2.4221    -2.6660    -0.0364 C.ar    
  10 N10            1.2804    -2.0188    -0.0211 N.ar    
  11 O11            4.8427     0.0593    -0.0447 O.3     
  12 C12            6.0400    -0.7207    -0.0607 C.3     
  13 C13            7.2364     0.1957    -0.0676 C.2     
  14 C14            7.8918     0.6831     1.0520 C.2     
  15 N15            8.9154     1.4720     0.5834 N.pl3   
  16 N16            8.8321     1.4257    -0.8142 N.2     
  17 N17            7.8452     0.6686    -1.1451 N.2     
  18 C18            7.7041     0.5227     2.4352 C.2     
  19 C19            8.5616     1.1683     3.3055 C.2     
  20 C20            9.6038     1.9721     2.7827 C.2     
  21 C21            9.7578     2.1048     1.4520 C.2     
  22 C22            8.3921     1.0215     4.7705 C.ar    
  23 C23            9.3766     0.3896     5.5292 C.ar    
  24 C24            7.2501     1.5199     5.3964 C.ar    
  25 C25            7.0978     1.3802     6.7608 C.ar    
  26 C26            8.0754     0.7472     7.5074 C.ar    
  27 C27            9.2132     0.2558     6.8928 C.ar    
  28 O28           -1.2065     2.0271     0.0188 O.3     
  29 C29           -1.1606     3.4553     0.0263 C.3     
  30 H30           -0.9239    -0.5598     0.0082 H       
  31 H31            1.1387     3.1829     0.0079 H       
  32 H32            3.2932     2.0476    -0.0188 H       
  33 H33            4.5646    -2.5602    -0.0569 H       
  34 H34            2.4134    -3.7460    -0.0425 H       
  35 H35            6.0728    -1.3543     0.8256 H       
  36 H36            6.0552    -1.3447    -0.9543 H       
  37 H37            6.9023    -0.0949     2.8121 H       
  38 H38           10.2787     2.4809     3.4550 H       
  39 H39           10.5569     2.7206     1.0666 H       
  40 H40           10.2651     0.0052     5.0504 H       
  41 H41            6.4865     2.0146     4.8146 H       
  42 H42            6.2139     1.7662     7.2467 H       
  43 H43            7.9520     0.6405     8.5750 H       
  44 H44            9.9728    -0.2378     7.4808 H       
  45 H45           -2.1761     3.8514     0.0333 H       
  46 H46           -0.6312     3.7971     0.9157 H       
  47 H47           -0.6396     3.8068    -0.8642 H       
@<TRIPOS>BOND
   1    1    2 ar
   2    1    3 ar
   3    1   28 1
   4    2    6 ar
   5    2   30 1
   6    3    4 ar
   7    3   31 1
   8    4    5 ar
   9    4   32 1
  10    5    6 ar
  11    5    7 ar
  12    6   10 ar
  13    7    8 ar
  14    7   11 1
  15    8    9 ar
  16    8   33 1
  17    9   10 ar
  18    9   34 1
  19   11   12 1
  20   12   13 1
  21   12   35 1
  22   12   36 1
  23   13   14 2
  24   13   17 1
  25   14   15 1
  26   14   18 1
  27   15   16 1
  28   15   21 1
  29   16   17 2
  30   18   19 2
  31   18   37 1
  32   19   20 1
  33   19   22 1
  34   20   21 2
  35   20   38 1
  36   21   39 1
  37   22   23 ar
  38   22   24 ar
  39   23   27 ar
  40   23   40 1
  41   24   25 ar
  42   24   41 1
  43   25   26 ar
  44   25   42 1
  45   26   27 ar
  46   26   43 1
  47   27   44 1
  48   28   29 1
  49   29   45 1
  50   29   46 1
  51   29   47 1

#	End of record

