#	Name: ASD03331360
#	Creating user name:	WinNT
#	Creation time:	15. 06. 2019 20:39

#	Modifying user name:	WinNT
#	Modification time:	15. 06. 2019 20:39

#	Program:	/corina/corina34_cracker 3.40 0067  02.08.2006

@<TRIPOS>MOLECULE
ASD03331360
  43   45    0    0    0
SMALL
NO_CHARGES


@<TRIPOS>ATOM
   1 C1             0.1115     1.4289    -0.2764 C.2     
   2 C2             0.1453     0.0700    -0.1797 C.2     
   3 C3             1.3724    -0.7512    -0.4841 C.3     
   4 C4             2.3296     0.0964    -1.3313 C.3     
   5 C5             2.5293     1.4687    -0.6798 C.3     
   6 N6             1.2380     2.1833    -0.6690 N.am    
   7 N7            -1.8910     0.7896     0.3710 N.2     
   8 N8            -1.0769    -0.3438     0.2195 N.pl3   
   9 C9            -1.1743     1.8586     0.0764 C.2     
  10 C10            1.1399     3.4824    -1.0143 C.2     
  11 O11            0.0468     4.0047    -1.1108 O.2     
  12 O12            2.2532     4.2017    -1.2525 O.3     
  13 C13           -1.6483     3.2640     0.1066 C.ar    
  14 C14           -2.7837     3.6340    -0.6120 C.ar    
  15 C15           -3.2213     4.9440    -0.5809 C.ar    
  16 C16           -2.5315     5.8896     0.1646 C.ar    
  17 C17           -1.4033     5.5244     0.8793 C.ar    
  18 C18           -0.9630     4.2163     0.8580 C.ar    
  19 F19           -2.9617     7.1700     0.1927 F       
  20 F20           -4.3215     5.3048    -1.2771 F       
  21 C21            2.0706     5.5557    -1.7442 C.3     
  22 C22            1.3755     6.3980    -0.6726 C.3     
  23 C23            3.4343     6.1684    -2.0694 C.3     
  24 C24            1.2096     5.5273    -3.0086 C.3     
  25 H25            1.8623    -1.0362     0.4469 H       
  26 H26            1.0864    -1.6449    -1.0388 H       
  27 H27            3.2912    -0.4113    -1.4078 H       
  28 H28            1.9107     0.2270    -2.3291 H       
  29 H29            2.8839     1.3394     0.3427 H       
  30 H30            3.2591     2.0418    -1.2518 H       
  31 H31           -1.3451    -1.2631     0.3740 H       
  32 H32           -3.3203     2.8980    -1.1925 H       
  33 H33           -0.8694     6.2635     1.4583 H       
  34 H34           -0.0856     3.9322     1.4199 H       
  35 H35            2.0255     6.4870     0.1978 H       
  36 H36            1.1640     7.3903    -1.0711 H       
  37 H37            0.4419     5.9168    -0.3813 H       
  38 H38            3.9295     5.5683    -2.8328 H       
  39 H39            3.2973     7.1848    -2.4385 H       
  40 H40            4.0477     6.1886    -1.1686 H       
  41 H41            0.2381     5.0908    -2.7769 H       
  42 H42            1.0726     6.5437    -3.3777 H       
  43 H43            1.7048     4.9272    -3.7720 H       
@<TRIPOS>BOND
   1    1    2 2
   2    1    6 1
   3    1    9 1
   4    2    3 1
   5    2    8 1
   6    3    4 1
   7    3   25 1
   8    3   26 1
   9    4    5 1
  10    4   27 1
  11    4   28 1
  12    5    6 1
  13    5   29 1
  14    5   30 1
  15    6   10 am
  16    7    8 1
  17    7    9 2
  18    8   31 1
  19    9   13 1
  20   10   11 2
  21   10   12 1
  22   12   21 1
  23   13   14 ar
  24   13   18 ar
  25   14   15 ar
  26   14   32 1
  27   15   16 ar
  28   15   20 1
  29   16   17 ar
  30   16   19 1
  31   17   18 ar
  32   17   33 1
  33   18   34 1
  34   21   22 1
  35   21   24 1
  36   21   23 1
  37   22   35 1
  38   22   36 1
  39   22   37 1
  40   23   38 1
  41   23   39 1
  42   23   40 1
  43   24   41 1
  44   24   42 1
  45   24   43 1

#	End of record

