#	Name: ASD02560008
#	Creating user name:	WinNT
#	Creation time:	15. 06. 2019 20:24

#	Modifying user name:	WinNT
#	Modification time:	15. 06. 2019 20:24

#	Program:	/corina/corina34_cracker 3.40 0067  02.08.2006

@<TRIPOS>MOLECULE
ASD02560008
  44   46    0    0    0
SMALL
NO_CHARGES


@<TRIPOS>ATOM
   1 N1            -0.0058     1.3626    -0.1410 N.am    
   2 C2             0.0016     0.0017    -0.0882 C.2     
   3 N3             1.1298    -0.6692     0.0434 N.2     
   4 C4             2.3011    -0.0439     0.1287 C.2     
   5 C5             2.3550     1.3194     0.0815 C.2     
   6 C6             1.1577     2.0427    -0.0585 C.2     
   7 O7             1.1696     3.2619    -0.1046 O.2     
   8 C8             3.6765     2.0372     0.1779 C.3     
   9 C9             3.5706    -0.8420     0.2784 C.3     
  10 C10            3.6068    -1.4766     1.6448 C.ar    
  11 C11            4.6364    -1.1775     2.5203 C.ar    
  12 C12            4.6687    -1.7612     3.7755 C.ar    
  13 C13            3.6735    -2.6423     4.1543 C.ar    
  14 C14            2.6453    -2.9420     3.2808 C.ar    
  15 C15            2.6076    -2.3547     2.0274 C.ar    
  16 C16            3.6158    -1.9339    -0.7924 C.3     
  17 F17            1.6021    -2.6475     1.1739 F       
  18 F18            5.6096    -0.3167     2.1501 F       
  19 S19           -1.5214    -0.8776    -0.1966 S.3     
  20 C20           -0.9123    -2.5776    -0.0746 C.3     
  21 C21           -2.0961    -3.5591    -0.0208 C.3     
  22 C22           -1.9592    -4.4823    -1.2491 C.3     
  23 C23           -0.4527    -4.4218    -1.6038 C.3     
  24 C24           -0.0973    -2.9386    -1.3336 C.3     
  25 H25           -0.8434     1.8413    -0.2417 H       
  26 H26            4.3053     1.7558    -0.6668 H       
  27 H27            3.5072     3.1139     0.1620 H       
  28 H28            4.1730     1.7612     1.1082 H       
  29 H29            4.4304    -0.1824     0.1612 H       
  30 H30            5.4721    -1.5283     4.4587 H       
  31 H31            3.6995    -3.0971     5.1336 H       
  32 H32            1.8685    -3.6312     3.5776 H       
  33 H33            3.5895    -1.4749    -1.7807 H       
  34 H34            4.5340    -2.5112    -0.6842 H       
  35 H35            2.7559    -2.5935    -0.6752 H       
  36 H36           -0.2939    -2.6893     0.8161 H       
  37 H37           -2.0518    -4.1478     0.8955 H       
  38 H38           -3.0375    -3.0117    -0.0682 H       
  39 H39           -2.2506    -5.5014    -0.9947 H       
  40 H40           -2.5614    -4.1078    -2.0769 H       
  41 H41            0.1237    -5.0814    -0.9552 H       
  42 H42           -0.2923    -4.6726    -2.6523 H       
  43 H43           -0.3988    -2.3147    -2.1751 H       
  44 H44            0.9701    -2.8311    -1.1410 H       
@<TRIPOS>BOND
   1    1    2 1
   2    1    6 am
   3    1   25 1
   4    2    3 2
   5    2   19 1
   6    3    4 1
   7    4    5 2
   8    4    9 1
   9    5    6 1
  10    5    8 1
  11    6    7 2
  12    8   26 1
  13    8   27 1
  14    8   28 1
  15    9   10 1
  16    9   16 1
  17    9   29 1
  18   10   11 ar
  19   10   15 ar
  20   11   12 ar
  21   11   18 1
  22   12   13 ar
  23   12   30 1
  24   13   14 ar
  25   13   31 1
  26   14   15 ar
  27   14   32 1
  28   15   17 1
  29   16   33 1
  30   16   34 1
  31   16   35 1
  32   19   20 1
  33   20   21 1
  34   20   24 1
  35   20   36 1
  36   21   22 1
  37   21   37 1
  38   21   38 1
  39   22   23 1
  40   22   39 1
  41   22   40 1
  42   23   24 1
  43   23   41 1
  44   23   42 1
  45   24   43 1
  46   24   44 1

#	End of record

