#	Name: ASD01911528
#	Creating user name:	WinNT
#	Creation time:	15. 06. 2019 19:57

#	Modifying user name:	WinNT
#	Modification time:	15. 06. 2019 19:57

#	Program:	/corina/corina34_cracker 3.40 0067  02.08.2006

@<TRIPOS>MOLECULE
ASD01911528
  22   23    0    0    0
SMALL
NO_CHARGES


@<TRIPOS>ATOM
   1 C1            -0.0167     1.3819     0.0096 C.ar    
   2 C2             0.0021    -0.0041     0.0020 C.ar    
   3 N3             1.1168     2.0644     0.0025 N.ar    
   4 N4             1.1517    -0.6513    -0.0125 N.ar    
   5 C5             2.2972     0.0300    -0.0198 C.ar    
   6 C6             2.2726     1.4282    -0.0120 C.ar    
   7 C7             3.5480    -0.6669    -0.0351 C.1     
   8 C8             4.5736    -1.2382    -0.0476 C.1     
   9 C9             5.8244    -1.9351    -0.0628 C.ar    
  10 C10            7.0258    -1.2213    -0.0705 C.ar    
  11 C11            8.2267    -1.8994    -0.0853 C.ar    
  12 C12            8.2439    -3.2831    -0.0924 C.ar    
  13 C13            7.0583    -3.9967    -0.0854 C.ar    
  14 C14            5.8498    -3.3324    -0.0643 C.ar    
  15 Br15          -1.6692     2.3012     0.0225 Br      
  16 H16           -0.9265    -0.5555     0.0083 H       
  17 H17            3.1974     1.9859    -0.0179 H       
  18 H18            7.0140    -0.1414    -0.0653 H       
  19 H19            9.1560    -1.3491    -0.0916 H       
  20 H20            9.1873    -3.8087    -0.1040 H       
  21 H21            7.0794    -5.0765    -0.0914 H       
  22 H22            4.9253    -3.8906    -0.0539 H       
@<TRIPOS>BOND
   1    1    2 ar
   2    1    3 ar
   3    1   15 1
   4    2    4 ar
   5    2   16 1
   6    3    6 ar
   7    4    5 ar
   8    5    6 ar
   9    5    7 1
  10    6   17 1
  11    7    8 3
  12    8    9 1
  13    9   10 ar
  14    9   14 ar
  15   10   11 ar
  16   10   18 1
  17   11   12 ar
  18   11   19 1
  19   12   13 ar
  20   12   20 1
  21   13   14 ar
  22   13   21 1
  23   14   22 1

#	End of record

