#	Name: ASD01022006
#	Creating user name:	WinNT
#	Creation time:	15. 06. 2019 18:56

#	Modifying user name:	WinNT
#	Modification time:	15. 06. 2019 18:56

#	Program:	/corina/corina34_cracker 3.40 0067  02.08.2006

@<TRIPOS>MOLECULE
ASD01022006
  69   73    0    0    0
SMALL
NO_CHARGES


@<TRIPOS>ATOM
   1 C1            -0.0167     1.3831     0.0096 C.ar    
   2 C2             0.0021    -0.0041     0.0020 C.ar    
   3 C3             1.2141    -0.6789    -0.0132 C.ar    
   4 C4             2.3989     0.0314    -0.0207 C.ar    
   5 C5             2.3774     1.4139    -0.0126 C.ar    
   6 C6             1.1708     2.0889     0.0021 C.ar    
   7 O7            -1.1648    -0.7006     0.0099 O.3     
   8 C8             3.6714     2.1863    -0.0198 C.3     
   9 C9             4.0963     2.4560    -1.4647 C.3     
  10 O10            5.3233     3.1884    -1.4715 O.3     
  11 C11            5.8425     3.5118    -2.6860 C.ar    
  12 C12            5.1787     3.1284    -3.8482 C.ar    
  13 C13            5.6905     3.4476    -5.0863 C.ar    
  14 C14            6.8809     4.1598    -5.1838 C.ar    
  15 C15            7.5538     4.5490    -4.0116 C.ar    
  16 C16            7.0231     4.2240    -2.7616 C.ar    
  17 N17            7.6265     4.6163    -6.2504 N.pl3   
  18 C18            8.7360     5.2738    -5.7940 C.2     
  19 C19            8.7515     5.2687    -4.4517 C.2     
  20 C20            3.6670     8.5854    -9.3334 C.ar    
  21 C21            2.2903     8.4036    -9.2142 C.ar    
  22 C22            1.4271     9.4016    -9.6152 C.ar    
  23 C23            1.9283    10.5865   -10.1370 C.ar    
  24 C24            3.2991    10.7703   -10.2574 C.ar    
  25 C25            4.1674     9.7783    -9.8523 C.ar    
  26 C26           10.8308     4.8228    -3.1762 C.3     
  27 C27            9.8021     5.8864    -3.5652 C.3     
  28 C28            7.2819     4.4256    -7.6614 C.3     
  29 C29            6.3360     5.5140    -8.0990 C.ar    
  30 C30            6.8366     6.6939    -8.6192 C.ar    
  31 C31            5.9750     7.6941    -9.0216 C.ar    
  32 C32            4.5983     7.5136    -8.9030 C.ar    
  33 C33            4.0995     6.3229    -8.3782 C.ar    
  34 C34            4.9702     5.3272    -7.9843 C.ar    
  35 O35            1.0755    11.5681   -10.5312 O.3     
  36 C36            1.6588    12.7610   -11.0591 C.3     
  37 N37           11.8549     5.4250    -2.3122 N.3     
  38 Cl38          13.0272     4.2677    -1.8532 Cl      
  39 H39           -0.9590     1.9108     0.0170 H       
  40 H40            1.2314    -1.7588    -0.0188 H       
  41 H41            3.3426    -0.4935    -0.0325 H       
  42 H42            1.1567     3.1688     0.0084 H       
  43 H43           -1.5113    -0.8975    -0.8712 H       
  44 H44            3.5318     3.1338     0.5007 H       
  45 H45            4.4441     1.6055     0.4838 H       
  46 H46            4.2359     1.5085    -1.9852 H       
  47 H47            3.3236     3.0369    -1.9683 H       
  48 H48            4.2538     2.5752    -3.7781 H       
  49 H49            5.1676     3.1446    -5.9813 H       
  50 H50            7.5370     4.5212    -1.8594 H       
  51 H51            9.4882     5.7295    -6.4209 H       
  52 H52            1.8999     7.4820    -8.8087 H       
  53 H53            0.3603     9.2612    -9.5234 H       
  54 H54            3.6861    11.6929   -10.6640 H       
  55 H55            5.2337     9.9218    -9.9462 H       
  56 H56           10.3330     4.0145    -2.6406 H       
  57 H57           11.3017     4.4266    -4.0759 H       
  58 H58           10.2999     6.6947    -4.1009 H       
  59 H59            9.3312     6.2827    -2.6656 H       
  60 H60            8.1882     4.4672    -8.2656 H       
  61 H61            6.8034     3.4548    -7.7906 H       
  62 H62            7.9038     6.8329    -8.7103 H       
  63 H63            6.3669     8.6151    -9.4273 H       
  64 H64            3.0334     6.1778    -8.2841 H       
  65 H65            4.5848     4.4040    -7.5775 H       
  66 H66            0.8694    13.4604   -11.3345 H       
  67 H67            2.3006    13.2162   -10.3047 H       
  68 H68            2.2514    12.5164   -11.9406 H       
  69 H69           12.2867     6.2183    -2.7620 H       
@<TRIPOS>BOND
   1    1    2 ar
   2    1    6 ar
   3    1   39 1
   4    2    3 ar
   5    2    7 1
   6    3    4 ar
   7    3   40 1
   8    4    5 ar
   9    4   41 1
  10    5    6 ar
  11    5    8 1
  12    6   42 1
  13    7   43 1
  14    8    9 1
  15    8   44 1
  16    8   45 1
  17    9   10 1
  18    9   46 1
  19    9   47 1
  20   10   11 1
  21   11   12 ar
  22   11   16 ar
  23   12   13 ar
  24   12   48 1
  25   13   14 ar
  26   13   49 1
  27   14   15 ar
  28   14   17 1
  29   15   16 ar
  30   15   19 1
  31   16   50 1
  32   17   18 1
  33   17   28 1
  34   18   19 2
  35   18   51 1
  36   19   27 1
  37   20   21 ar
  38   20   32 1
  39   20   25 ar
  40   21   22 ar
  41   21   52 1
  42   22   23 ar
  43   22   53 1
  44   23   24 ar
  45   23   35 1
  46   24   25 ar
  47   24   54 1
  48   25   55 1
  49   26   27 1
  50   26   37 1
  51   26   56 1
  52   26   57 1
  53   27   58 1
  54   27   59 1
  55   28   29 1
  56   28   60 1
  57   28   61 1
  58   29   30 ar
  59   29   34 ar
  60   30   31 ar
  61   30   62 1
  62   31   32 ar
  63   31   63 1
  64   32   33 ar
  65   33   34 ar
  66   33   64 1
  67   34   65 1
  68   35   36 1
  69   36   66 1
  70   36   67 1
  71   36   68 1
  72   37   38 1
  73   37   69 1

#	End of record

