#	Name: ASD01202021
#	Creating user name:	WinNT
#	Creation time:	15. 06. 2019 19:09

#	Modifying user name:	WinNT
#	Modification time:	15. 06. 2019 19:09

#	Program:	/corina/corina34_cracker 3.40 0067  02.08.2006

@<TRIPOS>MOLECULE
ASD01202021
  42   45    0    0    0
SMALL
NO_CHARGES


@<TRIPOS>ATOM
   1 C1            -0.0178     1.4628     0.0101 C.2     
   2 C2             0.0021    -0.0041     0.0020 C.2     
   3 C3             1.2816     1.8509    -0.0002 C.2     
   4 C4             1.3215    -0.3575    -0.0125 C.2     
   5 C5            -1.1611    -0.9093     0.0087 C.2     
   6 O6             2.0623     0.7549    -0.0136 O.3     
   7 C7             1.8534    -1.7675    -0.0256 C.3     
   8 O8            -0.9942    -2.1139     0.0010 O.2     
   9 N9            -2.4097    -0.4020     0.0233 N.am    
  10 C10           -3.5059    -1.2552     0.0296 C.2     
  11 N11           -4.7410    -0.8740     0.0434 N.2     
  12 S12           -3.4186    -2.9618     0.0128 S.3     
  13 C13           -5.6769    -1.8156     0.0422 C.2     
  14 C14           -5.1745    -3.0623     0.0264 C.2     
  15 H15           -2.5428     0.5588     0.0294 H       
  16 C16            1.7617     3.2492     0.0027 C.ar    
  17 C17            3.1308     3.5201    -0.0089 C.ar    
  18 C18            0.8478     4.3040     0.0112 C.ar    
  19 C19            1.3025     5.6065     0.0134 C.ar    
  20 C20            2.6611     5.8682     0.0067 C.ar    
  21 C21            3.5722     4.8272    -0.0066 C.ar    
  22 C22           -7.1717    -1.5324     0.0562 C.3     
  23 C23           -7.9153    -2.7942    -0.3872 C.3     
  24 C24           -7.4283    -3.9888     0.4381 C.3     
  25 C25           -5.9937    -4.3312     0.0214 C.3     
  26 H26           -0.8882     2.1020     0.0179 H       
  27 H27            1.9719    -2.1015    -1.0563 H       
  28 H28            2.8191    -1.7962     0.4790 H       
  29 H29            1.1538    -2.4245     0.4911 H       
  30 H30            3.8430     2.7083    -0.0194 H       
  31 H31           -0.2129     4.1010     0.0158 H       
  32 H32            0.5964     6.4237     0.0201 H       
  33 H33            3.0118     6.8897     0.0078 H       
  34 H34            4.6314     5.0382    -0.0114 H       
  35 H35           -7.4828    -1.2603     1.0648 H       
  36 H36           -7.3955    -0.7159    -0.6305 H       
  37 H37           -8.9858    -2.6582    -0.2333 H       
  38 H38           -7.7204    -2.9786    -1.4437 H       
  39 H39           -7.4491    -3.7331     1.4974 H       
  40 H40           -8.0757    -4.8465     0.2556 H       
  41 H41           -5.9963    -4.7609    -0.9803 H       
  42 H42           -5.5680    -5.0445     0.7272 H       
@<TRIPOS>BOND
   1    1    2 1
   2    1    3 2
   3    1   26 1
   4    2    4 2
   5    2    5 1
   6    3    6 1
   7    3   16 1
   8    4    7 1
   9    4    6 1
  10    5    8 2
  11    5    9 am
  12    7   27 1
  13    7   28 1
  14    7   29 1
  15    9   15 1
  16    9   10 1
  17   10   11 2
  18   10   12 1
  19   11   13 1
  20   12   14 1
  21   13   22 1
  22   13   14 2
  23   14   25 1
  24   16   17 ar
  25   16   18 ar
  26   17   21 ar
  27   17   30 1
  28   18   19 ar
  29   18   31 1
  30   19   20 ar
  31   19   32 1
  32   20   21 ar
  33   20   33 1
  34   21   34 1
  35   22   23 1
  36   22   35 1
  37   22   36 1
  38   23   24 1
  39   23   37 1
  40   23   38 1
  41   24   25 1
  42   24   39 1
  43   24   40 1
  44   25   41 1
  45   25   42 1

#	End of record

