#	Name: ASD01900623
#	Creating user name:	WinNT
#	Creation time:	15. 06. 2019 19:52

#	Modifying user name:	WinNT
#	Modification time:	15. 06. 2019 19:52

#	Program:	/corina/corina34_cracker 3.40 0067  02.08.2006

@<TRIPOS>MOLECULE
ASD01900623
  34   37    0    0    0
SMALL
NO_CHARGES


@<TRIPOS>ATOM
   1 C1            -0.0167     1.3815     0.0096 C.ar    
   2 C2             0.0021    -0.0041     0.0020 C.ar    
   3 C3            -1.1752    -0.7246     0.0111 C.ar    
   4 C4            -2.3952    -0.0615     0.0282 C.ar    
   5 C5            -2.4098     1.3400     0.0319 C.ar    
   6 C6            -1.2214     2.0582     0.0305 C.ar    
   7 O7            -3.5538    -0.7546     0.0485 O.3     
   8 C8            -4.7321    -0.1711    -0.2302 C.2     
   9 C9            -4.8990     1.1724    -0.2480 C.2     
  10 C10           -3.7281     2.0237     0.0365 C.2     
  11 N11           -3.8444     3.3067     0.2784 N.2     
  12 C12           -5.8939    -1.0317    -0.5300 C.ar    
  13 N13           -7.0719    -0.4664    -0.8089 N.ar    
  14 C14           -8.1440    -1.1664    -1.0839 C.ar    
  15 C15           -8.0893    -2.5713    -1.0946 C.ar    
  16 C16           -6.8554    -3.2116    -0.8034 C.ar    
  17 C17           -5.7380    -2.4090    -0.5218 C.ar    
  18 C18           -9.2171    -3.3541    -1.3836 C.ar    
  19 C19           -9.1115    -4.7124    -1.3807 C.ar    
  20 C20           -7.9005    -5.3399    -1.0949 C.ar    
  21 C21           -6.7841    -4.6131    -0.8100 C.ar    
  22 O22           -5.1229     3.9154     0.2717 O.3     
  23 Br23           1.6087     2.3478    -0.0007 Br      
  24 H24            0.9477    -0.5256    -0.0115 H       
  25 H25           -1.1476    -1.8042     0.0045 H       
  26 H26           -1.2386     3.1380     0.0371 H       
  27 H27           -5.8628     1.6089    -0.4642 H       
  28 H28           -9.0738    -0.6626    -1.3030 H       
  29 H29           -4.7807    -2.8551    -0.2956 H       
  30 H30          -10.1630    -2.8830    -1.6067 H       
  31 H31           -9.9811    -5.3130    -1.6031 H       
  32 H32           -7.8462    -6.4185    -1.0995 H       
  33 H33           -5.8516    -5.1116    -0.5902 H       
  34 H34           -5.1080     4.8636     0.4605 H       
@<TRIPOS>BOND
   1    1    2 ar
   2    1   23 1
   3    1    6 ar
   4    2    3 ar
   5    2   24 1
   6    3    4 ar
   7    3   25 1
   8    4    5 ar
   9    4    7 1
  10    5    6 ar
  11    5   10 1
  12    6   26 1
  13    7    8 1
  14    8    9 2
  15    8   12 1
  16    9   10 1
  17    9   27 1
  18   10   11 2
  19   11   22 1
  20   12   13 ar
  21   12   17 ar
  22   13   14 ar
  23   14   15 ar
  24   14   28 1
  25   15   16 ar
  26   15   18 ar
  27   16   17 ar
  28   16   21 ar
  29   17   29 1
  30   18   19 ar
  31   18   30 1
  32   19   20 ar
  33   19   31 1
  34   20   21 ar
  35   20   32 1
  36   21   33 1
  37   22   34 1

#	End of record

