#	Name: ASD03330989
#	Creating user name:	WinNT
#	Creation time:	15. 06. 2019 20:38

#	Modifying user name:	WinNT
#	Modification time:	15. 06. 2019 20:38

#	Program:	/corina/corina34_cracker 3.40 0067  02.08.2006

@<TRIPOS>MOLECULE
ASD03330989
  67   70    0    0    0
SMALL
NO_CHARGES


@<TRIPOS>ATOM
   1 N1            -0.1143     1.2729     0.4299 N.pl3   
   2 C2            -0.0294    -0.0796     0.3152 C.2     
   3 C3             1.2462    -0.8807     0.2991 C.3     
   4 N4             2.1116    -0.4314     1.4009 N.3     
   5 C5             2.9739     0.6747     0.9806 C.3     
   6 C6             2.2646     1.5638    -0.0367 C.3     
   7 C7             1.0188     2.1870     0.5988 C.3     
   8 C8            -1.4363     1.6059     0.3703 C.2     
   9 N9            -2.1401     0.5054     0.2426 N.2     
  10 C10           -1.3012    -0.5536     0.2082 C.2     
  11 C11           -1.6929    -1.9681     0.0775 C.2     
  12 O12           -0.8408    -2.8357     0.0578 O.2     
  13 N13           -2.9953    -2.3004    -0.0203 N.am    
  14 C14            2.9068    -1.5457     1.9337 C.3     
  15 C15           -4.7245    -3.7958    -0.8345 C.2     
  16 C16           -3.3847    -3.7067    -0.1503 C.3     
  17 C17           -3.4785    -4.3404     1.2392 C.3     
  18 C18           -4.0173    -5.7669     1.1138 C.3     
  19 O19           -5.5734    -2.9573    -0.6171 O.2     
  20 C20           -2.0892    -4.3744     1.8791 C.3     
  21 C21           -4.4229    -3.5136     2.1141 C.3     
  22 N22           -4.9793    -4.8072    -1.6880 N.am    
  23 C23           -6.2719    -5.0783    -2.3339 C.3     
  24 C24           -6.0954    -6.3440    -3.1990 C.3     
  25 C25           -4.8704    -7.0406    -2.5498 C.3     
  26 C26           -4.0063    -5.8213    -2.1336 C.3     
  27 F27           -7.2288    -7.1603    -3.1191 F       
  28 F28           -5.8232    -6.0013    -4.5278 F       
  29 C29           -1.9844     2.9775     0.4387 C.ar    
  30 C30           -2.9540     3.3922    -0.4789 C.ar    
  31 C31           -3.4622     4.6749    -0.4091 C.ar    
  32 C32           -3.0122     5.5481     0.5679 C.ar    
  33 C33           -2.0506     5.1409     1.4793 C.ar    
  34 C34           -1.5401     3.8609     1.4229 C.ar    
  35 F35           -3.5122     6.8015     0.6321 F       
  36 F36           -3.3925     2.5409    -1.4319 F       
  37 H37            1.0140    -1.9380     0.4262 H       
  38 H38            1.7587    -0.7307    -0.6511 H       
  39 H39            3.2416     1.2714     1.8526 H       
  40 H40            3.8814     0.2708     0.5319 H       
  41 H41            2.9408     2.3552    -0.3602 H       
  42 H42            1.9705     0.9649    -0.8987 H       
  43 H43            0.7970     3.1363     0.1113 H       
  44 H44            1.1967     2.3545     1.6611 H       
  45 H45           -3.6749    -1.6084    -0.0046 H       
  46 H46            3.4809    -2.0009     1.1266 H       
  47 H47            3.5879    -1.1729     2.6986 H       
  48 H48            2.2416    -2.2902     2.3711 H       
  49 H49           -2.6386    -4.2371    -0.7419 H       
  50 H50           -3.3039    -6.3774     0.5602 H       
  51 H51           -4.1624    -6.1892     2.1081 H       
  52 H52           -4.9696    -5.7503     0.5836 H       
  53 H53           -1.7054    -3.3582     1.9684 H       
  54 H54           -2.1560    -4.8259     2.8689 H       
  55 H55           -1.4164    -4.9634     1.2557 H       
  56 H56           -5.4127    -3.4894     1.6582 H       
  57 H57           -4.4897    -3.9651     3.1039 H       
  58 H58           -4.0391    -2.4974     2.2034 H       
  59 H59           -7.0360    -5.2510    -1.5760 H       
  60 H60           -6.5556    -4.2353    -2.9639 H       
  61 H61           -5.1693    -7.6267    -1.6807 H       
  62 H62           -4.3439    -7.6610    -3.2751 H       
  63 H63           -3.4346    -5.4504    -2.9843 H       
  64 H64           -3.3386    -6.0915    -1.3156 H       
  65 H65           -4.2111     4.9976    -1.1172 H       
  66 H66           -1.7035     5.8263     2.2383 H       
  67 H67           -0.7944     3.5442     2.1371 H       
@<TRIPOS>BOND
   1    1    2 1
   2    1    7 1
   3    1    8 1
   4    2    3 1
   5    2   10 2
   6    3    4 1
   7    3   37 1
   8    3   38 1
   9    4    5 1
  10    4   14 1
  11    5    6 1
  12    5   39 1
  13    5   40 1
  14    6    7 1
  15    6   41 1
  16    6   42 1
  17    7   43 1
  18    7   44 1
  19    8    9 2
  20    8   29 1
  21    9   10 1
  22   10   11 1
  23   11   12 2
  24   11   13 am
  25   13   16 1
  26   13   45 1
  27   14   46 1
  28   14   47 1
  29   14   48 1
  30   15   19 2
  31   15   22 am
  32   15   16 1
  33   16   17 1
  34   16   49 1
  35   17   18 1
  36   17   20 1
  37   17   21 1
  38   18   50 1
  39   18   51 1
  40   18   52 1
  41   20   53 1
  42   20   54 1
  43   20   55 1
  44   21   56 1
  45   21   57 1
  46   21   58 1
  47   22   23 1
  48   22   26 1
  49   23   24 1
  50   23   59 1
  51   23   60 1
  52   24   25 1
  53   24   27 1
  54   24   28 1
  55   25   26 1
  56   25   61 1
  57   25   62 1
  58   26   63 1
  59   26   64 1
  60   29   30 ar
  61   29   34 ar
  62   30   31 ar
  63   30   36 1
  64   31   32 ar
  65   31   65 1
  66   32   33 ar
  67   32   35 1
  68   33   34 ar
  69   33   66 1
  70   34   67 1

#	End of record

