#	Name: ASD01911402
#	Creating user name:	WinNT
#	Creation time:	15. 06. 2019 19:57

#	Modifying user name:	WinNT
#	Modification time:	15. 06. 2019 19:57

#	Program:	/corina/corina34_cracker 3.40 0067  02.08.2006

@<TRIPOS>MOLECULE
ASD01911402
  32   34    0    0    0
SMALL
NO_CHARGES


@<TRIPOS>ATOM
   1 N1            -0.0169     1.3963     0.0097 N.pl3   
   2 N2             0.0021    -0.0041     0.0020 N.2     
   3 C3             1.2567    -0.4030    -0.0121 C.2     
   4 C4             2.0816     0.7344    -0.0139 C.2     
   5 C5             1.2745     1.8341    -0.0003 C.2     
   6 C6             1.7196     3.2456     0.0021 C.ar    
   7 C7             0.7797     4.2762     0.0161 C.ar    
   8 C8             1.2010     5.5902     0.0182 C.ar    
   9 C9             2.5523     5.8863     0.0060 C.ar    
  10 C10            3.4893     4.8686    -0.0084 C.ar    
  11 C11            3.0808     3.5507    -0.0039 C.ar    
  12 C12            1.7204    -1.8131    -0.0234 C.ar    
  13 C13            0.7935    -2.8534    -0.0198 C.ar    
  14 C14            1.2287    -4.1626    -0.0303 C.ar    
  15 C15            2.5855    -4.4436    -0.0438 C.ar    
  16 C16            3.5104    -3.4123    -0.0474 C.ar    
  17 C17            3.0835    -2.0999    -0.0432 C.ar    
  18 C18            0.2272    -5.2886    -0.0265 C.3     
  19 F19            3.0076    -5.7269    -0.0531 F       
  20 H20           -0.8091     1.9561     0.0167 H       
  21 H21            3.1615     0.7375    -0.0236 H       
  22 H22           -0.2755     4.0463     0.0250 H       
  23 H23            0.4743     6.3890     0.0291 H       
  24 H24            2.8771     6.9163     0.0074 H       
  25 H25            4.5428     5.1062    -0.0186 H       
  26 H26            3.8132     2.7571    -0.0102 H       
  27 H27           -0.2642    -2.6353    -0.0086 H       
  28 H28            4.5670    -3.6357    -0.0576 H       
  29 H29            3.8051    -1.2965    -0.0509 H       
  30 H30           -0.0239    -5.5550    -1.0531 H       
  31 H31            0.6554    -6.1540     0.4792 H       
  32 H32           -0.6745    -4.9711     0.4973 H       
@<TRIPOS>BOND
   1    1    2 1
   2    1    5 1
   3    1   20 1
   4    2    3 2
   5    3    4 1
   6    3   12 1
   7    4    5 2
   8    4   21 1
   9    5    6 1
  10    6    7 ar
  11    6   11 ar
  12    7    8 ar
  13    7   22 1
  14    8    9 ar
  15    8   23 1
  16    9   10 ar
  17    9   24 1
  18   10   11 ar
  19   10   25 1
  20   11   26 1
  21   12   13 ar
  22   12   17 ar
  23   13   14 ar
  24   13   27 1
  25   14   15 ar
  26   14   18 1
  27   15   16 ar
  28   15   19 1
  29   16   17 ar
  30   16   28 1
  31   17   29 1
  32   18   30 1
  33   18   31 1
  34   18   32 1

#	End of record

