#	Name: ASD01911714
#	Creating user name:	WinNT
#	Creation time:	15. 06. 2019 19:58

#	Modifying user name:	WinNT
#	Modification time:	15. 06. 2019 19:58

#	Program:	/corina/corina34_cracker 3.40 0067  02.08.2006

@<TRIPOS>MOLECULE
ASD01911714
  45   48    0    0    0
SMALL
NO_CHARGES


@<TRIPOS>ATOM
   1 N1            -0.0154     1.3435     0.0179 N.am    
   2 C2             0.0021    -0.0041     0.0020 C.2     
   3 C3             1.2748    -0.7187    -0.1246 C.2     
   4 C4             1.4470    -2.0747    -0.0500 C.2     
   5 S5             2.8518     0.0159    -0.4072 S.3     
   6 C6             3.5963    -1.5802    -0.3909 C.2     
   7 N7             2.6740    -2.4890    -0.1928 N.2     
   8 C8             4.9923    -1.8438    -0.5711 C.1     
   9 C9             6.1367    -2.0599    -0.7188 C.1     
  10 C10            7.5327    -2.3234    -0.8990 C.ar    
  11 C11            8.0097    -3.6374    -0.8661 C.ar    
  12 C12            9.3552    -3.8832    -1.0409 C.ar    
  13 C13           10.2329    -2.8333    -1.2481 C.ar    
  14 C14            9.7684    -1.5301    -1.2820 C.ar    
  15 C15            8.4248    -1.2686    -1.1146 C.ar    
  16 O16           -1.0395    -0.6273     0.0928 O.2     
  17 C17           -1.2232     2.1848     0.0387 C.3     
  18 C18            1.1673     2.2138     0.0237 C.3     
  19 C19            0.6795     3.6708     0.1088 C.3     
  20 C20           -0.7782     3.5317     0.6503 C.3     
  21 C21            0.4461     4.2054    -1.3216 C.3     
  22 N22           -0.7358     5.0780    -1.2279 N.am    
  23 C23           -1.5305     4.6725    -0.0572 C.3     
  24 C24           -1.0382     6.0830    -2.0734 C.2     
  25 O25           -0.3058     6.3303    -3.0080 O.2     
  26 C26           -2.2864     6.8994    -1.8577 C.3     
  27 H27            0.6236    -2.7534     0.1160 H       
  28 H28            7.3261    -4.4576    -0.7038 H       
  29 H29            9.7252    -4.8975    -1.0157 H       
  30 H30           11.2857    -3.0321    -1.3836 H       
  31 H31           10.4595    -0.7160    -1.4437 H       
  32 H32            8.0638    -0.2511    -1.1412 H       
  33 H33           -1.5953     2.3354    -0.9747 H       
  34 H34           -1.9925     1.7248     0.6590 H       
  35 H35            1.7914     1.9825     0.8869 H       
  36 H36            1.7371     2.0683    -0.8940 H       
  37 H37            1.3160     4.3061     0.7248 H       
  38 H38           -0.8474     3.5591     1.7377 H       
  39 H39            1.3115     4.7774    -1.6562 H       
  40 H40            0.2518     3.3794    -2.0058 H       
  41 H41           -2.5113     4.3233    -0.3799 H       
  42 H42           -1.6441     5.5173     0.6222 H       
  43 H43           -2.8125     6.5328    -0.9762 H       
  44 H44           -2.0157     7.9450    -1.7106 H       
  45 H45           -2.9338     6.8109    -2.7301 H       
@<TRIPOS>BOND
   1    1    2 am
   2    1   18 1
   3    1   17 1
   4    2    3 1
   5    2   16 2
   6    3    4 2
   7    3    5 1
   8    4    7 1
   9    4   27 1
  10    5    6 1
  11    6    7 2
  12    6    8 1
  13    8    9 3
  14    9   10 1
  15   10   11 ar
  16   10   15 ar
  17   11   12 ar
  18   11   28 1
  19   12   13 ar
  20   12   29 1
  21   13   14 ar
  22   13   30 1
  23   14   15 ar
  24   14   31 1
  25   15   32 1
  26   17   20 1
  27   17   33 1
  28   17   34 1
  29   18   19 1
  30   18   35 1
  31   18   36 1
  32   19   20 1
  33   19   21 1
  34   19   37 1
  35   20   23 1
  36   20   38 1
  37   21   22 1
  38   21   39 1
  39   21   40 1
  40   22   23 1
  41   22   24 am
  42   23   41 1
  43   23   42 1
  44   24   25 2
  45   24   26 1
  46   26   43 1
  47   26   44 1
  48   26   45 1

#	End of record

