#	Name: ASD00069248
#	Creating user name:	WinNT
#	Creation time:	15. 06. 2019 18:29

#	Modifying user name:	WinNT
#	Modification time:	15. 06. 2019 18:29

#	Program:	/corina/corina34_cracker 3.40 0067  02.08.2006

@<TRIPOS>MOLECULE
ASD00069248
  53   56    0    0    0
SMALL
NO_CHARGES


@<TRIPOS>ATOM
   1 C1            -0.4928     1.7073    -0.3050 C.2     
   2 N2            -0.6882     0.4108    -0.4052 N.2     
   3 C3             0.4964    -0.2130    -0.3944 C.2     
   4 C4             1.4787     0.7462    -0.2815 C.2     
   5 N5             0.8530     1.9447    -0.2261 N.pl3   
   6 C6            -1.5483     2.7355    -0.2870 C.2     
   7 O7            -1.2508     3.9107    -0.1905 O.2     
   8 N8            -2.8434     2.3735    -0.3774 N.am    
   9 C9            -0.1187    -3.9169    -0.6830 C.ar    
  10 C10           -0.3664    -2.5552    -0.5986 C.ar    
  11 C11            0.7127    -1.6776    -0.4870 C.ar    
  12 C12            2.0046    -2.2156    -0.4651 C.ar    
  13 C13            2.1645    -3.5812    -0.5538 C.ar    
  14 N14            1.1199    -4.3820    -0.6585 N.ar    
  15 O15           -1.1583    -4.7827    -0.7862 O.3     
  16 C16           -0.8389    -6.1731    -0.8696 C.3     
  17 C17            1.4693     3.1980    -0.1095 C.ar    
  18 C18            1.3134     3.9479     1.0555 C.ar    
  19 C19            1.9275     5.1892     1.1645 C.ar    
  20 C20            2.6906     5.6767     0.1182 C.ar    
  21 C21            2.8436     4.9316    -1.0368 C.ar    
  22 C22            2.2408     3.6934    -1.1508 C.ar    
  23 F23            1.7793     5.9201     2.2910 F       
  24 N24            0.5406     3.4519     2.1114 N.3     
  25 C25           -0.2117     4.5306     2.7649 C.3     
  26 C26           -1.1523     3.9348     3.8148 C.3     
  27 C27           -0.3301     3.1613     4.8493 C.3     
  28 C28            0.4809     2.0754     4.1368 C.3     
  29 C29            1.3741     2.7251     3.0775 C.3     
  30 N30           -1.8893     5.0158     4.4828 N.3     
  31 H31            2.5443     0.5744    -0.2441 H       
  32 H32           -3.0807     1.4361    -0.4544 H       
  33 H33           -3.5382     3.0503    -0.3655 H       
  34 H34           -1.3788    -2.1797    -0.6193 H       
  35 H35            2.8652    -1.5685    -0.3802 H       
  36 H36            3.1587    -4.0028    -0.5379 H       
  37 H37           -1.7585    -6.7531    -0.9480 H       
  38 H38           -0.2206    -6.3517    -1.7493 H       
  39 H39           -0.2941    -6.4750     0.0249 H       
  40 H40            3.1676     6.6418     0.2037 H       
  41 H41            3.4397     5.3170    -1.8508 H       
  42 H42            2.3666     3.1128    -2.0528 H       
  43 H43            0.4835     5.2172     3.2479 H       
  44 H44           -0.7953     5.0700     2.0188 H       
  45 H45           -1.8567     3.2586     3.3304 H       
  46 H46            0.3473     3.8449     5.3612 H       
  47 H47           -0.9995     2.6990     5.5748 H       
  48 H48            1.1008     1.5491     4.8625 H       
  49 H49           -0.1979     1.3699     3.6575 H       
  50 H50            1.9423     1.9532     2.5585 H       
  51 H51            2.0619     3.4202     3.5591 H       
  52 H52           -2.5175     4.6473     5.1812 H       
  53 H53           -1.2559     5.6899     4.8859 H       
@<TRIPOS>BOND
   1    1    2 2
   2    1    5 1
   3    1    6 1
   4    2    3 1
   5    3    4 2
   6    3   11 1
   7    4    5 1
   8    4   31 1
   9    5   17 1
  10    6    7 2
  11    6    8 am
  12    8   32 1
  13    8   33 1
  14    9   10 ar
  15    9   14 ar
  16    9   15 1
  17   10   11 ar
  18   10   34 1
  19   11   12 ar
  20   12   13 ar
  21   12   35 1
  22   13   14 ar
  23   13   36 1
  24   15   16 1
  25   16   37 1
  26   16   38 1
  27   16   39 1
  28   17   18 ar
  29   17   22 ar
  30   18   19 ar
  31   18   24 1
  32   19   20 ar
  33   19   23 1
  34   20   21 ar
  35   20   40 1
  36   21   22 ar
  37   21   41 1
  38   22   42 1
  39   24   25 1
  40   24   29 1
  41   25   26 1
  42   25   43 1
  43   25   44 1
  44   26   27 1
  45   26   30 1
  46   26   45 1
  47   27   28 1
  48   27   46 1
  49   27   47 1
  50   28   29 1
  51   28   48 1
  52   28   49 1
  53   29   50 1
  54   29   51 1
  55   30   52 1
  56   30   53 1

#	End of record

