#	Name: ASD03730680
#	Creating user name:	WinNT
#	Creation time:	15. 06. 2019 20:44

#	Modifying user name:	WinNT
#	Modification time:	15. 06. 2019 20:44

#	Program:	/corina/corina34_cracker 3.40 0067  02.08.2006

@<TRIPOS>MOLECULE
ASD03730680
  42   47    0    0    0
SMALL
NO_CHARGES


@<TRIPOS>ATOM
   1 O1            -0.3541     1.2242     0.8886 O.3     
   2 C2            -0.3023    -0.2139     0.9378 C.3     
   3 O3             0.8354    -0.5437     0.1194 O.3     
   4 C4             1.6633     0.5401     0.1909 C.ar    
   5 C5             0.9309     1.6272     0.6625 C.ar    
   6 C6             3.0048     0.6890    -0.1118 C.ar    
   7 C7             3.6314     1.9211     0.0492 C.ar    
   8 C8             2.8872     3.0022     0.5119 C.ar    
   9 C9             1.5510     2.8553     0.8205 C.ar    
  10 O10            4.9305     2.2737    -0.1707 O.3     
  11 C11            3.8223     4.1812     0.5506 C.3     
  12 C12            5.0213     3.7071    -0.2820 C.3     
  13 N13            3.2460     6.3569     0.9457 N.am    
  14 C14            3.1982     5.4208    -0.0230 C.2     
  15 C15            4.2219     4.5483     1.9487 C.ar    
  16 C16            4.8387     3.8576     2.9825 C.ar    
  17 C17            5.0794     4.4982     4.1974 C.ar    
  18 C18            4.7015     5.8160     4.3629 C.ar    
  19 C19            4.0884     6.5022     3.3345 C.ar    
  20 C20            3.8419     5.8754     2.1142 C.ar    
  21 O21            2.7413     5.5537    -1.1387 O.2     
  22 C22            2.7336     7.7207     0.7910 C.3     
  23 O23            6.1897     0.6215     2.0317 O.3     
  24 C24            6.0962     1.9484     1.8632 C.2     
  25 C25            5.2406     2.4411     2.7955 C.2     
  26 C26            4.7961     1.2839     3.5801 C.2     
  27 C27            5.4187     0.2165     3.0522 C.2     
  28 H28           -0.1503    -0.5569     1.9611 H       
  29 H29           -1.2123    -0.6444     0.5198 H       
  30 H30            3.5698    -0.1567    -0.4752 H       
  31 H31            0.9866     3.7004     1.1860 H       
  32 H32            5.9565     4.0700     0.1444 H       
  33 H33            4.9202     4.0219    -1.3206 H       
  34 H34            5.5594     3.9660     5.0054 H       
  35 H35            4.8868     6.3130     5.3037 H       
  36 H36            3.7971     7.5324     3.4764 H       
  37 H37            2.3204     7.8422    -0.2103 H       
  38 H38            1.9535     7.9017     1.5305 H       
  39 H39            3.5457     8.4327     0.9378 H       
  40 H40            6.6139     2.5275     1.1128 H       
  41 H41            4.1084     1.2889     4.4129 H       
  42 H42            5.3147    -0.8027     3.3938 H       
@<TRIPOS>BOND
   1    1    2 1
   2    1    5 1
   3    2    3 1
   4    2   28 1
   5    2   29 1
   6    3    4 1
   7    4    5 ar
   8    4    6 ar
   9    5    9 ar
  10    6    7 ar
  11    6   30 1
  12    7    8 ar
  13    7   10 1
  14    8    9 ar
  15    8   11 1
  16    9   31 1
  17   10   12 1
  18   11   12 1
  19   11   14 1
  20   11   15 1
  21   12   32 1
  22   12   33 1
  23   13   14 am
  24   13   20 1
  25   13   22 1
  26   14   21 2
  27   15   16 ar
  28   15   20 ar
  29   16   17 ar
  30   16   25 1
  31   17   18 ar
  32   17   34 1
  33   18   19 ar
  34   18   35 1
  35   19   20 ar
  36   19   36 1
  37   22   37 1
  38   22   38 1
  39   22   39 1
  40   23   24 1
  41   23   27 1
  42   24   25 2
  43   24   40 1
  44   25   26 1
  45   26   27 2
  46   26   41 1
  47   27   42 1

#	End of record

