#	Name: ASD03430469
#	Creating user name:	WinNT
#	Creation time:	15. 06. 2019 20:41

#	Modifying user name:	WinNT
#	Modification time:	15. 06. 2019 20:41

#	Program:	/corina/corina34_cracker 3.40 0067  02.08.2006

@<TRIPOS>MOLECULE
ASD03430469
  52   56    0    0    0
SMALL
NO_CHARGES


@<TRIPOS>ATOM
   1 N1            -0.0161     1.3395     0.0094 N.am    
   2 C2             0.0021    -0.0041     0.0020 C.2     
   3 C3             1.4548    -0.4298    -0.0141 C.3     
   4 C4             2.2197     0.8737    -0.0144 C.ar    
   5 C5             3.5641     1.1705    -0.0263 C.ar    
   6 C6             3.9795     2.4906    -0.0239 C.ar    
   7 C7             3.0415     3.5068    -0.0095 C.ar    
   8 C8             1.6940     3.2122     0.0024 C.ar    
   9 C9             1.2680     1.8853     0.0001 C.ar    
  10 O10           -0.9637    -0.7377     0.0076 O.2     
  11 C11           -1.2434     2.1395     0.0197 C.3     
  12 O12           -2.4671     1.6329     2.1849 O.3     
  13 C13           -1.6570     2.4066     1.4440 C.2     
  14 C14           -1.2770     3.4601     2.1891 C.2     
  15 C15           -1.8943     3.3122     3.4524 C.2     
  16 C16           -2.6146     2.1772     3.4038 C.2     
  17 C17           -3.4460     1.6122     4.5265 C.3     
  18 F18           -4.7477     2.1181     4.4431 F       
  19 F19           -3.4804     0.2173     4.4251 F       
  20 F20           -2.8818     1.9768     5.7537 F       
  21 O21            2.6835    -3.4135     4.6152 O.3     
  22 C22            2.8634    -4.8260     4.4703 C.3     
  23 C23            3.7554    -5.0646     3.2450 C.3     
  24 N24            3.0530    -4.5757     2.0527 N.3     
  25 C25            2.5701    -3.2712     2.2230 C.ar    
  26 C26            2.3907    -2.7148     3.4839 C.ar    
  27 C27            2.2654    -2.5223     1.0915 C.ar    
  28 C28            1.7830    -1.2343     1.2172 C.ar    
  29 C29            1.6008    -0.6807     2.4752 C.ar    
  30 C30            1.9048    -1.4211     3.6069 C.ar    
  31 C31            3.9086    -4.6693     0.8623 C.3     
  32 O32            1.1241     0.5870     2.5986 O.3     
  33 O33            1.7436    -1.1801    -1.1956 O.3     
  34 H34            4.2935     0.3741    -0.0372 H       
  35 H35            5.0333     2.7266    -0.0329 H       
  36 H36            3.3659     4.5370    -0.0072 H       
  37 H37            0.9677     4.0114     0.0136 H       
  38 H38           -1.0644     3.0860    -0.4902 H       
  39 H39           -2.0364     1.5949    -0.4929 H       
  40 H40           -0.6250     4.2642     1.8815 H       
  41 H41           -1.8045     3.9819     4.2950 H       
  42 H42            3.3446    -5.2298     5.3610 H       
  43 H43            1.8968    -5.3076     4.3221 H       
  44 H44            4.6939    -4.5232     3.3645 H       
  45 H45            3.9558    -6.1309     3.1402 H       
  46 H46            2.4055    -2.9504     0.1099 H       
  47 H47            1.7626    -0.9900     4.5869 H       
  48 H48            4.2490    -5.6975     0.7395 H       
  49 H49            3.3409    -4.3670    -0.0178 H       
  50 H50            4.7705    -4.0130     0.9818 H       
  51 H51            0.1601     0.6412     2.6522 H       
  52 H52            1.2345    -1.9982    -1.2762 H       
@<TRIPOS>BOND
   1    1    2 am
   2    1    9 1
   3    1   11 1
   4    2    3 1
   5    2   10 2
   6    3    4 1
   7    3   28 1
   8    3   33 1
   9    4    5 ar
  10    4    9 ar
  11    5    6 ar
  12    5   34 1
  13    6    7 ar
  14    6   35 1
  15    7    8 ar
  16    7   36 1
  17    8    9 ar
  18    8   37 1
  19   11   13 1
  20   11   38 1
  21   11   39 1
  22   12   13 1
  23   12   16 1
  24   13   14 2
  25   14   15 1
  26   14   40 1
  27   15   16 2
  28   15   41 1
  29   16   17 1
  30   17   18 1
  31   17   19 1
  32   17   20 1
  33   21   22 1
  34   21   26 1
  35   22   23 1
  36   22   42 1
  37   22   43 1
  38   23   24 1
  39   23   44 1
  40   23   45 1
  41   24   25 1
  42   24   31 1
  43   25   26 ar
  44   25   27 ar
  45   26   30 ar
  46   27   28 ar
  47   27   46 1
  48   28   29 ar
  49   29   30 ar
  50   29   32 1
  51   30   47 1
  52   31   48 1
  53   31   49 1
  54   31   50 1
  55   32   51 1
  56   33   52 1

#	End of record

