#	Name: ASD03091297
#	Creating user name:	WinNT
#	Creation time:	15. 06. 2019 20:30

#	Modifying user name:	WinNT
#	Modification time:	15. 06. 2019 20:30

#	Program:	/corina/corina34_cracker 3.40 0067  02.08.2006

@<TRIPOS>MOLECULE
ASD03091297
  50   54    0    0    0
SMALL
NO_CHARGES


@<TRIPOS>ATOM
   1 N1            -0.0380     1.3728    -0.1183 N.2     
   2 C2            -0.0869     0.0768     0.0413 C.2     
   3 N3             1.0293    -0.6998     0.1965 N.am    
   4 C4             2.2607    -0.1379     0.1905 C.2     
   5 C5             2.3399     1.3200     0.0121 C.ar    
   6 C6             3.5597     1.9914    -0.0087 C.ar    
   7 C7             3.5755     3.3658    -0.1805 C.ar    
   8 C8             2.3820     4.0723    -0.3313 C.ar    
   9 C9             1.1788     3.4277    -0.3126 C.ar    
  10 C10            1.1332     2.0405    -0.1412 C.ar    
  11 O11            3.2641    -0.8131     0.3279 O.2     
  12 C12           -2.8698    -2.3766    -0.5682 C.ar    
  13 C13           -1.6178    -1.7966    -0.6078 C.ar    
  14 C14           -1.4116    -0.5821     0.0556 C.ar    
  15 C15           -2.4930    -0.0082     0.7333 C.ar    
  16 C16           -3.7110    -0.6575     0.7209 C.ar    
  17 N17           -3.8623    -1.8016     0.0827 N.ar    
  18 C18            0.8906    -2.1478     0.3705 C.3     
  19 N19            7.5926     4.5985    -0.9997 N.3     
  20 C20            7.2337     3.8684     0.2257 C.3     
  21 C21            5.9144     3.1336     0.0465 C.3     
  22 N22            4.7940     4.0487    -0.2023 N.3     
  23 C23            4.9775     4.7579    -1.4763 C.3     
  24 C24            5.6497     6.1027    -1.2432 C.3     
  25 C25            7.1240     5.9889    -0.9117 C.3     
  26 C26            7.2387     3.9627    -2.2507 C.3     
  27 C27            5.7340     3.8622    -2.4401 C.3     
  28 H28            4.4844     1.4459     0.1083 H       
  29 H29            2.4104     5.1437    -0.4643 H       
  30 H30            0.2633     3.9883    -0.4303 H       
  31 H31           -3.0401    -3.3117    -1.0809 H       
  32 H32           -0.8096    -2.2733    -1.1425 H       
  33 H33           -2.3762     0.9283     1.2583 H       
  34 H34           -4.5516    -0.2227     1.2414 H       
  35 H35            0.8331    -2.6274    -0.6066 H       
  36 H36            1.7534    -2.5328     0.9140 H       
  37 H37           -0.0181    -2.3606     0.9337 H       
  38 H38            8.0178     3.1473     0.4567 H       
  39 H39            7.1421     4.5748     1.0507 H       
  40 H40            6.0038     2.4479    -0.7960 H       
  41 H41            5.7060     2.5573     0.9478 H       
  42 H42            3.9923     4.9417    -1.9048 H       
  43 H43            5.5394     6.7090    -2.1423 H       
  44 H44            5.1444     6.6079    -0.4201 H       
  45 H45            7.2906     6.3572     0.1005 H       
  46 H46            7.6941     6.6014    -1.6103 H       
  47 H47            7.6606     4.5409    -3.0728 H       
  48 H48            7.6653     2.9599    -2.2707 H       
  49 H49            5.4251     2.8292    -2.2805 H       
  50 H50            5.4855     4.1509    -3.4614 H       
@<TRIPOS>BOND
   1    1    2 2
   2    1   10 1
   3    2    3 1
   4    2   14 1
   5    3    4 am
   6    3   18 1
   7    4    5 1
   8    4   11 2
   9    5    6 ar
  10    5   10 ar
  11    6    7 ar
  12    6   28 1
  13    7    8 ar
  14    7   22 1
  15    8    9 ar
  16    8   29 1
  17    9   10 ar
  18    9   30 1
  19   12   13 ar
  20   12   17 ar
  21   12   31 1
  22   13   14 ar
  23   13   32 1
  24   14   15 ar
  25   15   16 ar
  26   15   33 1
  27   16   17 ar
  28   16   34 1
  29   18   35 1
  30   18   36 1
  31   18   37 1
  32   19   20 1
  33   19   25 1
  34   19   26 1
  35   20   21 1
  36   20   38 1
  37   20   39 1
  38   21   22 1
  39   21   40 1
  40   21   41 1
  41   22   23 1
  42   23   24 1
  43   23   27 1
  44   23   42 1
  45   24   25 1
  46   24   43 1
  47   24   44 1
  48   25   45 1
  49   25   46 1
  50   26   27 1
  51   26   47 1
  52   26   48 1
  53   27   49 1
  54   27   50 1

#	End of record

