#	Name: ASD05730154
#	Creating user name:	WinNT
#	Creation time:	15. 06. 2019 21:02

#	Modifying user name:	WinNT
#	Modification time:	15. 06. 2019 21:02

#	Program:	/corina/corina34_cracker 3.40 0067  02.08.2006

@<TRIPOS>MOLECULE
ASD05730154
  74   79    0    0    0
SMALL
NO_CHARGES


@<TRIPOS>ATOM
   1 C1             0.0269     1.5031     0.0296 C.3     
   2 C2             0.0353    -0.0039     0.0162 C.ar    
   3 C3             1.0717    -0.6825    -0.5983 C.ar    
   4 C4             1.0825    -2.0634    -0.6124 C.ar    
   5 C5             0.0510    -2.7707    -0.0080 C.ar    
   6 C6            -0.9883    -2.0859     0.6087 C.ar    
   7 C7            -0.9905    -0.7049     0.6234 C.ar    
   8 N8             0.0586    -4.1686    -0.0209 N.pl3   
   9 C9             0.5628    -4.8467    -1.1140 C.ar    
  10 N10            0.6625    -6.1659    -1.0558 N.ar    
  11 C11            1.1419    -6.8525    -2.0868 C.ar    
  12 C12            1.5420    -6.1483    -3.2432 C.ar    
  13 C13            1.4164    -4.7509    -3.2552 C.ar    
  14 N14            0.9246    -4.1518    -2.1869 N.ar    
  15 N15            1.2492    -8.2193    -2.0351 N.am    
  16 C16            1.7370    -8.9104    -3.0832 C.2     
  17 C17            2.1613    -8.2107    -4.2976 C.2     
  18 C18            2.0563    -6.8469    -4.3592 C.2     
  19 C19            0.8295    -8.9343    -0.8272 C.3     
  20 O20            1.8259   -10.1236    -3.0205 O.2     
  21 C21            2.6981    -8.9718    -5.4500 C.ar    
  22 C22           -1.2323     2.0136    -0.6764 C.3     
  23 C23           -0.6273    -9.3025    -0.9422 C.2     
  24 C24            3.9891    -9.4965    -5.4020 C.ar    
  25 N25           -1.0733   -10.4019    -1.4494 N.2     
  26 C26            1.9120    -9.1712    -6.5847 C.ar    
  27 C27            2.4174    -9.8807    -7.6546 C.ar    
  28 C28            3.7011   -10.3944    -7.6032 C.ar    
  29 C29            4.4836   -10.2045    -6.4785 C.ar    
  30 C30            0.5133    -8.6131    -6.6418 C.3     
  31 C31            0.0319     2.0012     1.4767 C.3     
  32 N32            0.0024     3.4693     1.4904 N.3     
  33 C33           -1.2207     3.9818     0.8598 C.3     
  34 C34           -1.2631     3.5428    -0.6056 C.3     
  35 C35           -2.3807   -10.5661    -1.4722 C.2     
  36 C36           -3.0761    -9.5486    -0.9555 C.2     
  37 S37           -1.9280    -8.3273    -0.4127 S.3     
  38 S38            6.1173   -10.8620    -6.4227 S.o2    
  39 O39            6.0803   -11.9686    -7.3134 O.2     
  40 C40            7.1609    -9.5390    -7.0944 C.3     
  41 O41            6.3743   -11.0450    -5.0372 O.2     
  42 C42            8.6217    -9.9940    -7.0985 C.3     
  43 F43            8.7514   -11.1387    -7.8923 F       
  44 F44            9.4265    -8.9737    -7.6165 F       
  45 F45            9.0229   -10.2858    -5.7904 F       
  46 H46            0.9108     1.8765    -0.4875 H       
  47 H47            1.8734    -0.1320    -1.0680 H       
  48 H48            1.8918    -2.5929    -1.0931 H       
  49 H49           -1.7918    -2.6328     1.0795 H       
  50 H50           -1.7982    -0.1718     1.1028 H       
  51 H51           -0.2902    -4.6625     0.7376 H       
  52 H52            1.7119    -4.1781    -4.1217 H       
  53 H53            2.3641    -6.3128    -5.2460 H       
  54 H54            1.4255    -9.8400    -0.7156 H       
  55 H55            0.9749    -8.2941     0.0429 H       
  56 H56           -1.2186     1.6974    -1.7194 H       
  57 H57           -2.1159     1.6082    -0.1835 H       
  58 H58            4.6009    -9.3488    -4.5244 H       
  59 H59            1.8097   -10.0357    -8.5338 H       
  60 H60            4.0922   -10.9498    -8.4429 H       
  61 H61            0.5403    -7.6073    -7.0610 H       
  62 H62           -0.1074    -9.2520    -7.2701 H       
  63 H63            0.0954    -8.5765    -5.6358 H       
  64 H64           -0.8450     1.6154     1.9966 H       
  65 H65            0.9343     1.6513     1.9781 H       
  66 H66            0.1009     3.8241     2.4298 H       
  67 H67           -2.0918     3.5868     1.3826 H       
  68 H68           -1.2281     5.0704     0.9132 H       
  69 H69           -0.3995     3.9489    -1.1323 H       
  70 H70           -2.1787     3.9102    -1.0692 H       
  71 H71           -2.8515   -11.4503    -1.8758 H       
  72 H72           -4.1518    -9.4875    -0.8803 H       
  73 H73            6.8483    -9.3117    -8.1136 H       
  74 H74            7.0599    -8.6472    -6.4759 H       
@<TRIPOS>BOND
   1    1    2 1
   2    1   22 1
   3    1   31 1
   4    1   46 1
   5    2    3 ar
   6    2    7 ar
   7    3    4 ar
   8    3   47 1
   9    4    5 ar
  10    4   48 1
  11    5    6 ar
  12    5    8 1
  13    6    7 ar
  14    6   49 1
  15    7   50 1
  16    8    9 1
  17    8   51 1
  18    9   10 ar
  19    9   14 ar
  20   10   11 ar
  21   11   12 ar
  22   11   15 1
  23   12   13 ar
  24   12   18 1
  25   13   14 ar
  26   13   52 1
  27   15   16 am
  28   15   19 1
  29   16   17 1
  30   16   20 2
  31   17   18 2
  32   17   21 1
  33   18   53 1
  34   19   23 1
  35   19   54 1
  36   19   55 1
  37   21   24 ar
  38   21   26 ar
  39   22   34 1
  40   22   56 1
  41   22   57 1
  42   23   25 2
  43   23   37 1
  44   24   29 ar
  45   24   58 1
  46   25   35 1
  47   26   27 ar
  48   26   30 1
  49   27   28 ar
  50   27   59 1
  51   28   29 ar
  52   28   60 1
  53   29   38 1
  54   30   61 1
  55   30   62 1
  56   30   63 1
  57   31   32 1
  58   31   64 1
  59   31   65 1
  60   32   33 1
  61   32   66 1
  62   33   34 1
  63   33   67 1
  64   33   68 1
  65   34   69 1
  66   34   70 1
  67   35   36 2
  68   35   71 1
  69   36   37 1
  70   36   72 1
  71   38   39 2
  72   38   40 1
  73   38   41 2
  74   40   42 1
  75   40   73 1
  76   40   74 1
  77   42   43 1
  78   42   44 1
  79   42   45 1

#	End of record

