#	Name: ASD01883302
#	Creating user name:	WinNT
#	Creation time:	15. 06. 2019 19:46

#	Modifying user name:	WinNT
#	Modification time:	15. 06. 2019 19:46

#	Program:	/corina/corina34_cracker 3.40 0067  02.08.2006

@<TRIPOS>MOLECULE
ASD01883302
  42   43    0    0    0
SMALL
NO_CHARGES


@<TRIPOS>ATOM
   1 N1            -0.0162     1.3417     0.0094 N.am    
   2 C2             0.0021    -0.0041     0.0020 C.2     
   3 C3            -1.2158    -0.7274     0.0098 C.2     
   4 C4            -2.4264    -0.0108     0.0252 C.2     
   5 C5            -2.3786     1.3977     0.0323 C.2     
   6 C6            -1.1852     2.0328     0.0299 C.2     
   7 O7             1.0657    -0.5999    -0.0117 O.2     
   8 C8            -1.2148    -2.1593     0.0016 C.1     
   9 N9            -1.2140    -3.2953    -0.0049 N.1     
  10 C10            1.2513     2.0762     0.0013 C.3     
  11 C11            1.6788     2.3397    -1.4440 C.3     
  12 C12            3.0025     3.1069    -1.4525 C.3     
  13 C13            3.4931     3.2615    -2.8935 C.3     
  14 C14            2.7942     4.4904    -0.8334 C.3     
  15 C15           -3.7213    -0.7203     0.0332 C.ar    
  16 C16           -4.5708    -0.6146     1.1384 C.ar    
  17 C17           -5.7773    -1.2766     1.1429 C.ar    
  18 C18           -6.1520    -2.0516     0.0482 C.ar    
  19 C19           -5.3074    -2.1591    -1.0540 C.ar    
  20 C20           -4.1026    -1.4943    -1.0666 C.ar    
  21 S21           -7.6972    -2.8983     0.0578 S.3     
  22 C22           -7.7112    -3.7403    -1.5489 C.3     
  23 H23           -3.2948     1.9694     0.0438 H       
  24 H24           -1.1609     3.1125     0.0358 H       
  25 H25            1.1244     3.0257     0.5214 H       
  26 H26            2.0168     1.4856     0.5046 H       
  27 H27            1.8057     1.3903    -1.9642 H       
  28 H28            0.9133     2.9303    -1.9474 H       
  29 H29            3.7446     2.5575    -0.8731 H       
  30 H30            2.7511     3.8108    -3.4729 H       
  31 H31            4.4362     3.8081    -2.8995 H       
  32 H32            3.6416     2.2759    -3.3345 H       
  33 H33            2.0521     5.0397    -1.4129 H       
  34 H34            2.4447     4.3802     0.1931 H       
  35 H35            3.7372     5.0369    -0.8395 H       
  36 H36           -4.2805    -0.0143     1.9879 H       
  37 H37           -6.4340    -1.1953     1.9965 H       
  38 H38           -5.6004    -2.7611    -1.9014 H       
  39 H39           -3.4481    -1.5779    -1.9216 H       
  40 H40           -7.6434    -3.0011    -2.3471 H       
  41 H41           -6.8614    -4.4201    -1.6102 H       
  42 H42           -8.6371    -4.3056    -1.6548 H       
@<TRIPOS>BOND
   1    1    2 am
   2    1   10 1
   3    1    6 1
   4    2    3 1
   5    2    7 2
   6    3    4 2
   7    3    8 1
   8    4    5 1
   9    4   15 1
  10    5    6 2
  11    5   23 1
  12    6   24 1
  13    8    9 3
  14   10   11 1
  15   10   25 1
  16   10   26 1
  17   11   12 1
  18   11   27 1
  19   11   28 1
  20   12   13 1
  21   12   14 1
  22   12   29 1
  23   13   30 1
  24   13   31 1
  25   13   32 1
  26   14   33 1
  27   14   34 1
  28   14   35 1
  29   15   16 ar
  30   15   20 ar
  31   16   17 ar
  32   16   36 1
  33   17   18 ar
  34   17   37 1
  35   18   19 ar
  36   18   21 1
  37   19   20 ar
  38   19   38 1
  39   20   39 1
  40   21   22 1
  41   22   40 1
  42   22   41 1
  43   22   42 1

#	End of record

