#	Name: ASD01028840
#	Creating user name:	WinNT
#	Creation time:	15. 06. 2019 18:58

#	Modifying user name:	WinNT
#	Modification time:	15. 06. 2019 18:58

#	Program:	/corina/corina34_cracker 3.40 0067  02.08.2006

@<TRIPOS>MOLECULE
ASD01028840
  57   62    0    0    0
SMALL
NO_CHARGES


@<TRIPOS>ATOM
   1 C1            -0.0157     1.3060     0.0092 C.ar    
   2 N2             0.0021    -0.0041     0.0020 N.ar    
   3 C3             1.1645     2.0563     0.0020 C.ar    
   4 C4             2.3770     1.4188    -0.0130 C.ar    
   5 C5             2.3867     0.0119    -0.0207 C.ar    
   6 C6             1.1525    -0.6850    -0.0126 C.ar    
   7 C7             3.5911    -0.7100    -0.0356 C.ar    
   8 C8             3.5598    -2.0712    -0.0422 C.ar    
   9 C9             2.3478    -2.7583    -0.0348 C.ar    
  10 C10            1.1619    -2.0906    -0.0203 C.ar    
  11 C11            4.8530    -2.8448    -0.0582 C.3     
  12 C12            5.2974    -3.1098     1.3572 C.2     
  13 N13            6.4195    -3.7808     1.7366 N.pl3   
  14 C14            6.4139    -3.7761     3.1099 C.2     
  15 N15            5.3258    -3.1248     3.4862 N.2     
  16 N16            4.6784    -2.7323     2.4459 N.2     
  17 C17            7.4281    -4.3849     1.0491 C.2     
  18 C18            8.4490    -4.9949     1.7158 C.2     
  19 C19            8.4665    -5.0041     3.1328 C.2     
  20 C20            7.4612    -4.4016     3.8204 C.2     
  21 C21            9.5383    -5.6479     0.9598 C.2     
  22 F22            4.6607    -4.0611    -0.7221 F       
  23 F23            5.8334    -2.1005    -0.7231 F       
  24 O24            9.4338    -6.7219     0.1568 O.3     
  25 N25           10.5026    -7.0209    -0.3226 N.2     
  26 C26           11.4534    -6.2219     0.0714 C.2     
  27 C27           10.8559    -5.2781     0.9311 C.2     
  28 C28           12.9071    -6.2901    -0.3199 C.3     
  29 O29            1.1087     3.4142     0.0094 O.3     
  30 C30           -0.1901     4.0101     0.0245 C.3     
  31 C31           -0.0521     5.5338     0.0310 C.3     
  32 O32            0.5471     5.9649    -1.1947 O.3     
  33 C33            0.6732     7.3860    -1.3017 C.3     
  34 C34           -0.7121     8.0248    -1.1679 C.3     
  35 O35           -1.3114     7.5938     0.0578 O.3     
  36 C36           -1.4375     6.1726     0.1648 C.3     
  37 F37            7.4638    -4.4014     5.1714 F       
  38 H38           -0.9658     1.8194     0.0165 H       
  39 H39            3.2995     1.9804    -0.0192 H       
  40 H40            4.5368    -0.1884    -0.0421 H       
  41 H41            2.3494    -3.8383    -0.0407 H       
  42 H42            0.2314    -2.6388    -0.0145 H       
  43 H43            7.4191    -4.3809    -0.0309 H       
  44 H44            9.2740    -5.4870     3.6630 H       
  45 H45           11.3286    -4.4576     1.4504 H       
  46 H46           13.0711    -5.6895    -1.2146 H       
  47 H47           13.5210    -5.9047     0.4941 H       
  48 H48           13.1806    -7.3257    -0.5224 H       
  49 H49           -0.7429     3.6991    -0.8619 H       
  50 H50           -0.7263     3.6900     0.9180 H       
  51 H51            0.5735     5.8394     0.8696 H       
  52 H52            1.3227     7.7549    -0.5078 H       
  53 H53            1.1003     7.6419    -2.2714 H       
  54 H54           -0.6138     9.1104    -1.1633 H       
  55 H55           -1.3372     7.7182    -2.0066 H       
  56 H56           -2.0869     5.8037    -0.6291 H       
  57 H57           -1.8645     5.9168     1.1345 H       
@<TRIPOS>BOND
   1    1    2 ar
   2    1    3 ar
   3    1   38 1
   4    2    6 ar
   5    3    4 ar
   6    3   29 1
   7    4    5 ar
   8    4   39 1
   9    5    6 ar
  10    5    7 ar
  11    6   10 ar
  12    7    8 ar
  13    7   40 1
  14    8    9 ar
  15    8   11 1
  16    9   10 ar
  17    9   41 1
  18   10   42 1
  19   11   12 1
  20   11   22 1
  21   11   23 1
  22   12   13 1
  23   12   16 2
  24   13   14 1
  25   13   17 1
  26   14   15 2
  27   14   20 1
  28   15   16 1
  29   17   18 2
  30   17   43 1
  31   18   19 1
  32   18   21 1
  33   19   20 2
  34   19   44 1
  35   20   37 1
  36   21   24 1
  37   21   27 2
  38   24   25 1
  39   25   26 2
  40   26   27 1
  41   26   28 1
  42   27   45 1
  43   28   46 1
  44   28   47 1
  45   28   48 1
  46   29   30 1
  47   30   31 1
  48   30   49 1
  49   30   50 1
  50   31   32 1
  51   31   36 1
  52   31   51 1
  53   32   33 1
  54   33   34 1
  55   33   52 1
  56   33   53 1
  57   34   35 1
  58   34   54 1
  59   34   55 1
  60   35   36 1
  61   36   56 1
  62   36   57 1

#	End of record

