#	Name: ASD01911139
#	Creating user name:	WinNT
#	Creation time:	15. 06. 2019 19:57

#	Modifying user name:	WinNT
#	Modification time:	15. 06. 2019 19:57

#	Program:	/corina/corina34_cracker 3.40 0067  02.08.2006

@<TRIPOS>MOLECULE
ASD01911139
  28   29    0    0    0
SMALL
NO_CHARGES


@<TRIPOS>ATOM
   1 C1            -0.0167     1.3788     0.0096 C.ar    
   2 C2             0.0021    -0.0041     0.0020 C.ar    
   3 C3             1.2059    -0.6884    -0.0127 C.ar    
   4 C4             2.3977     0.0037    -0.0199 C.ar    
   5 C5             2.3904     1.4030    -0.0127 C.ar    
   6 C6             1.1687     2.0890     0.0021 C.ar    
   7 C7             3.6569     2.1488    -0.0198 C.2     
   8 N8             3.6457     3.4563    -0.0131 N.2     
   9 N9             4.7573     4.1109    -0.0194 N.2     
  10 C10            4.7461     5.4184    -0.0127 C.2     
  11 C11            6.0126     6.1642    -0.0197 C.ar    
  12 C12            6.0053     7.5635    -0.0126 C.ar    
  13 C13            7.2343     5.4781    -0.0278 C.ar    
  14 C14            8.4197     6.1884    -0.0340 C.ar    
  15 C15            8.4009     7.5712    -0.0322 C.ar    
  16 C16            7.1971     8.2556    -0.0189 C.ar    
  17 F17            1.1497     3.4399     0.0091 F       
  18 F18            7.2533     4.1273    -0.0291 F       
  19 H19           -0.9599     1.9048     0.0169 H       
  20 H20           -0.9277    -0.5535     0.0079 H       
  21 H21            1.2109    -1.7684    -0.0182 H       
  22 H22            3.3350    -0.5327    -0.0306 H       
  23 H23            4.5967     1.6168    -0.0306 H       
  24 H24            3.8062     5.9503    -0.0019 H       
  25 H25            5.0680     8.0999    -0.0026 H       
  26 H26            9.3630     5.6624    -0.0398 H       
  27 H27            9.3307     8.1207    -0.0366 H       
  28 H28            7.1921     9.3356    -0.0176 H       
@<TRIPOS>BOND
   1    1    2 ar
   2    1    6 ar
   3    1   19 1
   4    2    3 ar
   5    2   20 1
   6    3    4 ar
   7    3   21 1
   8    4    5 ar
   9    4   22 1
  10    5    6 ar
  11    5    7 1
  12    6   17 1
  13    7    8 2
  14    7   23 1
  15    8    9 1
  16    9   10 2
  17   10   11 1
  18   10   24 1
  19   11   12 ar
  20   11   13 ar
  21   12   16 ar
  22   12   25 1
  23   13   14 ar
  24   13   18 1
  25   14   15 ar
  26   14   26 1
  27   15   16 ar
  28   15   27 1
  29   16   28 1

#	End of record

