#	Name: ASD09790001
#	Creating user name:	WinNT
#	Creation time:	15. 06. 2019 21:23

#	Modifying user name:	WinNT
#	Modification time:	15. 06. 2019 21:23

#	Program:	/corina/corina34_cracker 3.40 0067  02.08.2006

@<TRIPOS>MOLECULE
ASD09790001
  19   18    0    0    0
SMALL
NO_CHARGES


@<TRIPOS>ATOM
   1 C1            -0.0184     1.5028     0.0103 C.3     
   2 C2             0.0021    -0.0041     0.0020 C.2     
   3 N3             1.1783    -0.6620    -0.0127 N.am    
   4 O4            -1.0399    -0.6247     0.0086 O.2     
   5 C5             1.1981    -2.1268    -0.0208 C.3     
   6 C6             2.4982    -2.6148     0.5647 C.2     
   7 C7             1.0656    -2.6308    -1.4593 C.3     
   8 S8            -0.4993    -2.0434    -2.1641 S.3     
   9 O9             3.3234    -1.8205     0.9492 O.2     
  10 O10            2.7393    -3.9319     0.6589 O.3     
  11 H11            0.3670    -2.5048     0.5746 H       
  12 H12            1.0042     1.8801     0.0026 H       
  13 H13           -0.5455     1.8639    -0.8728 H       
  14 H14           -0.5286     1.8543     0.9071 H       
  15 H15            2.0116    -0.1656    -0.0180 H       
  16 H16            1.8967    -2.2529    -2.0547 H       
  17 H17            1.0804    -3.7207    -1.4653 H       
  18 H18           -0.4810    -2.5533    -3.4085 H       
  19 H19            3.5871    -4.1967     1.0414 H       
@<TRIPOS>BOND
   1    1    2 1
   2    1   12 1
   3    1   13 1
   4    1   14 1
   5    2    3 am
   6    2    4 2
   7    3    5 1
   8    3   15 1
   9    5    6 1
  10    5    7 1
  11    5   11 1
  12    6    9 2
  13    6   10 1
  14    7    8 1
  15    7   16 1
  16    7   17 1
  17    8   18 1
  18   10   19 1

#	End of record

