#	Name: ASD00070061
#	Creating user name:	WinNT
#	Creation time:	15. 06. 2019 18:30

#	Modifying user name:	WinNT
#	Modification time:	15. 06. 2019 18:30

#	Program:	/corina/corina34_cracker 3.40 0067  02.08.2006

@<TRIPOS>MOLECULE
ASD00070061
  85   90    0    0    0
SMALL
NO_CHARGES


@<TRIPOS>ATOM
   1 C1            -0.0179     1.4710     0.0101 C.2     
   2 C2             0.0021    -0.0041     0.0020 C.ar    
   3 C3             1.2212    -0.6879    -0.0133 C.ar    
   4 C4             1.2366    -2.0639    -0.0204 C.ar    
   5 C5             0.0397    -2.7749    -0.0127 C.ar    
   6 C6            -1.1761    -2.0968     0.0021 C.ar    
   7 C7            -1.1980    -0.7209     0.0155 C.ar    
   8 O8             1.0267     2.0932     0.0035 O.2     
   9 N9            -1.1941     2.1289     0.0193 N.am    
  10 N10            0.0585    -4.1653    -0.0203 N.3     
  11 C11           -1.3061    -4.7105    -0.0102 C.3     
  12 C12           -1.2433    -6.2371    -0.0993 C.3     
  13 N13           -0.4621    -6.7594     1.0306 N.3     
  14 C14            0.9025    -6.2142     1.0205 C.3     
  15 C15            0.8397    -4.6876     1.1095 C.3     
  16 C16           -0.4422    -8.2283     1.0225 C.3     
  17 C17           -1.2140     3.5938     0.0273 C.3     
  18 C18           -2.5310     4.0893    -0.5734 C.3     
  19 C19           -2.5518     5.6191    -0.5649 C.3     
  20 C20           -2.4262     6.1229     0.8742 C.3     
  21 C21           -1.1092     5.6275     1.4749 C.3     
  22 C22           -1.0884     4.0976     1.4665 C.3     
  23 C23           -2.4470     7.6528     0.8827 C.3     
  24 C24           -2.4470     8.1549     2.3279 C.3     
  25 N25           -2.4670     9.6237     2.3360 N.3     
  26 C26           -2.7057    10.1394     3.6901 C.3     
  27 C27           -2.8648    11.6605     3.6374 C.3     
  28 C28           -1.5939    12.2817     3.0513 C.3     
  29 C29           -1.3414    11.6921     1.6609 C.3     
  30 C30           -1.2265    10.1700     1.7709 C.3     
  31 O31           -0.1296    16.6420     4.2827 O.3     
  32 C32            0.9563    15.7428     4.5636 C.3     
  33 C33            0.2720    14.3558     4.5230 C.3     
  34 C34           -0.9147    14.6189     3.6163 C.ar    
  35 C35           -1.0646    15.9974     3.5321 C.ar    
  36 C36           -1.7677    13.7746     2.9412 C.ar    
  37 C37           -2.7843    14.2976     2.1612 C.ar    
  38 C38           -2.9387    15.6678     2.0635 C.ar    
  39 C39           -2.0871    16.5156     2.7415 C.ar    
  40 H40            2.1501    -0.1369    -0.0199 H       
  41 H41            2.1781    -2.5928    -0.0322 H       
  42 H42           -2.1030    -2.6511     0.0072 H       
  43 H43           -2.1414    -0.1954     0.0318 H       
  44 H44           -2.0275     1.6326     0.0205 H       
  45 H45           -1.8068    -4.4205     0.9135 H       
  46 H46           -1.8605    -4.3190    -0.8631 H       
  47 H47           -2.2533    -6.6454    -0.0628 H       
  48 H48           -0.7670    -6.5275    -1.0358 H       
  49 H49            1.4569    -6.6057     1.8734 H       
  50 H50            1.4032    -6.5042     0.0967 H       
  51 H51            1.8496    -4.2793     1.0730 H       
  52 H52            0.3634    -4.3972     2.0460 H       
  53 H53            0.0076    -8.5805     0.0942 H       
  54 H54            0.1425    -8.5884     1.8690 H       
  55 H55           -1.4619    -8.6059     1.0983 H       
  56 H56           -0.3800     3.9717    -0.5640 H       
  57 H57           -2.6205     3.7303    -1.5987 H       
  58 H58           -3.3650     3.7113     0.0180 H       
  59 H59           -1.7178     5.9970    -1.1563 H       
  60 H60           -3.4901     5.9721    -0.9929 H       
  61 H61           -3.2602     5.7450     1.4656 H       
  62 H62           -0.2752     6.0054     0.8836 H       
  63 H63           -1.0197     5.9864     2.5002 H       
  64 H64           -1.9224     3.7197     2.0579 H       
  65 H65           -0.1501     3.7446     1.8945 H       
  66 H66           -1.5644     8.0310     0.3667 H       
  67 H67           -3.3442     8.0068     0.3750 H       
  68 H68           -3.3296     7.7767     2.8439 H       
  69 H69           -1.5498     7.8009     2.8356 H       
  70 H70           -3.6145     9.6929     4.0937 H       
  71 H71           -1.8609     9.8845     4.3300 H       
  72 H72           -3.7179    11.9157     3.0088 H       
  73 H73           -3.0265    12.0446     4.6446 H       
  74 H74           -0.7470    12.0595     3.7005 H       
  75 H75           -2.1706    11.9477     1.0012 H       
  76 H76           -0.4147    12.0987     1.2560 H       
  77 H77           -0.3887     9.9150     2.4198 H       
  78 H78           -1.0610     9.7458     0.7806 H       
  79 H79            1.7266    15.8159     3.7959 H       
  80 H80            1.3741    15.9385     5.5511 H       
  81 H81            0.9349    13.6068     4.0898 H       
  82 H82           -0.0569    14.0544     5.5175 H       
  83 H83           -3.4544    13.6375     1.6305 H       
  84 H84           -3.7300    16.0770     1.4528 H       
  85 H85           -2.2149    17.5849     2.6599 H       
@<TRIPOS>BOND
   1    1    2 1
   2    1    8 2
   3    1    9 am
   4    2    3 ar
   5    2    7 ar
   6    3    4 ar
   7    3   40 1
   8    4    5 ar
   9    4   41 1
  10    5    6 ar
  11    5   10 1
  12    6    7 ar
  13    6   42 1
  14    7   43 1
  15    9   17 1
  16    9   44 1
  17   10   11 1
  18   10   15 1
  19   11   12 1
  20   11   45 1
  21   11   46 1
  22   12   13 1
  23   12   47 1
  24   12   48 1
  25   13   14 1
  26   13   16 1
  27   14   15 1
  28   14   49 1
  29   14   50 1
  30   15   51 1
  31   15   52 1
  32   16   53 1
  33   16   54 1
  34   16   55 1
  35   17   18 1
  36   17   22 1
  37   17   56 1
  38   18   19 1
  39   18   57 1
  40   18   58 1
  41   19   20 1
  42   19   59 1
  43   19   60 1
  44   20   21 1
  45   20   23 1
  46   20   61 1
  47   21   22 1
  48   21   62 1
  49   21   63 1
  50   22   64 1
  51   22   65 1
  52   23   24 1
  53   23   66 1
  54   23   67 1
  55   24   25 1
  56   24   68 1
  57   24   69 1
  58   25   26 1
  59   25   30 1
  60   26   27 1
  61   26   70 1
  62   26   71 1
  63   27   28 1
  64   27   72 1
  65   27   73 1
  66   28   29 1
  67   28   36 1
  68   28   74 1
  69   29   30 1
  70   29   75 1
  71   29   76 1
  72   30   77 1
  73   30   78 1
  74   31   32 1
  75   31   35 1
  76   32   33 1
  77   32   79 1
  78   32   80 1
  79   33   34 1
  80   33   81 1
  81   33   82 1
  82   34   35 ar
  83   34   36 ar
  84   35   39 ar
  85   36   37 ar
  86   37   38 ar
  87   37   83 1
  88   38   39 ar
  89   38   84 1
  90   39   85 1

#	End of record

