#	Name: ASD00844833
#	Creating user name:	WinNT
#	Creation time:	15. 06. 2019 18:51

#	Modifying user name:	WinNT
#	Modification time:	15. 06. 2019 18:51

#	Program:	/corina/corina34_cracker 3.40 0067  02.08.2006

@<TRIPOS>MOLECULE
ASD00844833
 102  107    0    0    0
SMALL
NO_CHARGES


@<TRIPOS>ATOM
   1 F1             5.6871    -2.0314    -2.1435 F       
   2 C2             0.6602     1.3189    -0.6294 C.ar    
   3 C3             0.9378    -0.0214    -0.8541 C.ar    
   4 C4             0.8459    -0.9309     0.1897 C.ar    
   5 C5             0.4785    -0.4999     1.4495 C.ar    
   6 C6             0.2018     0.8368     1.6708 C.ar    
   7 C7             0.2930     1.7451     0.6325 C.ar    
   8 C8             1.1464    -2.3880    -0.0509 C.3     
   9 C9             0.8539    -3.2020     1.1915 C.2     
  10 C10            0.3359    -2.9119    -1.2381 C.3     
  11 C11           -1.1272    -2.6322    -1.0102 C.2     
  12 N12           -2.0421    -3.0599    -1.9026 N.am    
  13 O13           -1.4814    -2.0221    -0.0237 O.2     
  14 C14           -3.4574    -2.6928    -1.7581 C.3     
  15 C15           -4.3026    -3.9703    -1.7775 C.3     
  16 C16           -3.9863    -4.7673    -3.0451 C.3     
  17 C17           -2.5086    -5.1658    -3.0437 C.3     
  18 C18           -1.6422    -3.8972    -3.0418 C.3     
  19 C19           -4.8538    -6.0270    -3.0850 C.3     
  20 C20           -6.3326    -5.6299    -3.0882 C.3     
  21 C21           -7.1941    -6.8907    -3.1896 C.3     
  22 N22           -6.8606    -7.6150    -4.4227 N.3     
  23 C23           -5.4574    -8.0478    -4.4214 C.3     
  24 C24           -4.5441    -6.8215    -4.3568 C.3     
  25 C25           -7.7633    -8.7565    -4.6233 C.3     
  26 O26           -0.2228    -3.3223     1.7369 O.2     
  27 N27            2.0108    -3.7668     1.5760 N.am    
  28 C28            2.6256    -2.5920    -0.2846 C.ar    
  29 C29            3.0701    -3.4290     0.7312 C.ar    
  30 C30            3.4943    -2.1241    -1.2446 C.ar    
  31 C31            4.8309    -2.4885    -1.2038 C.ar    
  32 C32            5.2859    -3.3228    -0.1954 C.ar    
  33 C33            4.4145    -3.7920     0.7675 C.ar    
  34 Cl34           6.9597    -3.7805    -0.1424 Cl      
  35 C35            1.8748    -6.4016     2.3593 C.ar    
  36 C36            0.6240    -6.7665     1.8822 C.ar    
  37 C37            2.8962    -7.3314     2.4055 C.ar    
  38 C38            2.6750    -8.6259     1.9764 C.ar    
  39 C39            1.4256    -8.9958     1.4983 C.ar    
  40 C40            0.3994    -8.0652     1.4515 C.ar    
  41 O41            1.2085   -10.2693     1.0768 O.3     
  42 O42           -0.3801    -5.8519     1.8375 O.3     
  43 C43            2.3111   -11.1751     1.1540 C.3     
  44 C44           -1.6414    -6.2973     1.3346 C.3     
  45 C45           -2.6390    -5.1376     1.3606 C.3     
  46 C46           -7.4671    -9.4097    -5.9748 C.3     
  47 C47           -7.5494    -9.7785    -3.5051 C.3     
  48 O48            1.2987    -0.4431    -2.0945 O.3     
  49 C49            1.2748     0.5281    -3.1425 C.3     
  50 C50            1.7899    -0.1051    -4.4365 C.3     
  51 F51            3.0670    -0.6339    -4.2208 F       
  52 F52            0.9221    -1.1284    -4.8326 F       
  53 S53            2.1631    -4.7497     2.9001 S.o2    
  54 O54            3.5280    -4.6878     3.2909 O.2     
  55 O55            1.0897    -4.4193     3.7707 O.2     
  56 H56            0.7353     2.0295    -1.4393 H       
  57 H57            0.4068    -1.2074     2.2623 H       
  58 H58           -0.0861     1.1718     2.6563 H       
  59 H59            0.0764     2.7885     0.8079 H       
  60 H60            0.6635    -2.4130    -2.1502 H       
  61 H61            0.4893    -3.9866    -1.3368 H       
  62 H62           -3.6050    -2.1714    -0.8124 H       
  63 H63           -3.7534    -2.0463    -2.5843 H       
  64 H64           -4.0696    -4.5741    -0.9005 H       
  65 H65           -5.3603    -3.7070    -1.7679 H       
  66 H66           -4.1962    -4.1541    -3.9215 H       
  67 H67           -2.2924    -5.7583    -2.1548 H       
  68 H68           -2.2894    -5.7533    -3.9353 H       
  69 H69           -1.7914    -3.3513    -3.9734 H       
  70 H70           -0.5922    -4.1719    -2.9410 H       
  71 H71           -4.6436    -6.6419    -2.2100 H       
  72 H72           -6.5693    -5.1008    -2.1651 H       
  73 H73           -6.5337    -4.9822    -3.9415 H       
  74 H74           -7.0027    -7.5316    -2.3289 H       
  75 H75           -8.2473    -6.6106    -3.2065 H       
  76 H76           -5.2741    -8.6832    -3.5550 H       
  77 H77           -5.2492    -8.6080    -5.3330 H       
  78 H78           -4.7170    -6.1925    -5.2300 H       
  79 H79           -3.5029    -7.1437    -4.3401 H       
  80 H80           -8.7966    -8.4099    -4.6060 H       
  81 H81            3.1348    -1.4743    -2.0288 H       
  82 H82            4.7761    -4.4421     1.5505 H       
  83 H83            3.8691    -7.0455     2.7772 H       
  84 H84            3.4750    -9.3505     2.0128 H       
  85 H85           -0.5736    -8.3512     1.0801 H       
  86 H86            3.1325   -10.8005     0.5432 H       
  87 H87            2.6387   -11.2613     2.1900 H       
  88 H88            2.0031   -12.1544     0.7877 H       
  89 H89           -1.5202    -6.6495     0.3103 H       
  90 H90           -2.0138    -7.1109     1.9570 H       
  91 H91           -3.6011    -5.4773     0.9770 H       
  92 H92           -2.7602    -4.7853     2.3849 H       
  93 H93           -2.2666    -4.3239     0.7382 H       
  94 H94           -6.4338    -9.7562    -5.9921 H       
  95 H95           -8.1369   -10.2566    -6.1236 H       
  96 H96           -7.6194    -8.6815    -6.7715 H       
  97 H97           -8.2193   -10.6254    -3.6539 H       
  98 H98           -6.5162   -10.1251    -3.5223 H       
  99 H99           -7.7605    -9.3132    -2.5423 H       
 100 H100           0.2530     0.8776    -3.2906 H       
 101 H101           1.9113     1.3705    -2.8717 H       
 102 H102           1.8380     0.6533    -5.2180 H       
@<TRIPOS>BOND
   1    1   31 1
   2    2    3 ar
   3    2    7 ar
   4    2   56 1
   5    3    4 ar
   6    3   48 1
   7    4    5 ar
   8    4    8 1
   9    5    6 ar
  10    5   57 1
  11    6    7 ar
  12    6   58 1
  13    7   59 1
  14    8    9 1
  15    8   10 1
  16    8   28 1
  17    9   26 2
  18    9   27 am
  19   10   11 1
  20   10   60 1
  21   10   61 1
  22   11   12 am
  23   11   13 2
  24   12   14 1
  25   12   18 1
  26   14   15 1
  27   14   62 1
  28   14   63 1
  29   15   16 1
  30   15   64 1
  31   15   65 1
  32   16   17 1
  33   16   19 1
  34   16   66 1
  35   17   18 1
  36   17   67 1
  37   17   68 1
  38   18   69 1
  39   18   70 1
  40   19   20 1
  41   19   24 1
  42   19   71 1
  43   20   21 1
  44   20   72 1
  45   20   73 1
  46   21   22 1
  47   21   74 1
  48   21   75 1
  49   22   23 1
  50   22   25 1
  51   23   24 1
  52   23   76 1
  53   23   77 1
  54   24   78 1
  55   24   79 1
  56   25   46 1
  57   25   47 1
  58   25   80 1
  59   27   53 am
  60   27   29 1
  61   28   29 ar
  62   28   30 ar
  63   29   33 ar
  64   30   31 ar
  65   30   81 1
  66   31   32 ar
  67   32   33 ar
  68   32   34 1
  69   33   82 1
  70   35   36 ar
  71   35   37 ar
  72   35   53 1
  73   36   42 1
  74   36   40 ar
  75   37   38 ar
  76   37   83 1
  77   38   39 ar
  78   38   84 1
  79   39   40 ar
  80   39   41 1
  81   40   85 1
  82   41   43 1
  83   42   44 1
  84   43   86 1
  85   43   87 1
  86   43   88 1
  87   44   45 1
  88   44   89 1
  89   44   90 1
  90   45   91 1
  91   45   92 1
  92   45   93 1
  93   46   94 1
  94   46   95 1
  95   46   96 1
  96   47   97 1
  97   47   98 1
  98   47   99 1
  99   48   49 1
 100   49   50 1
 101   49  100 1
 102   49  101 1
 103   50   51 1
 104   50   52 1
 105   50  102 1
 106   53   54 2
 107   53   55 2

#	End of record

