#	Name: ASD01028162
#	Creating user name:	WinNT
#	Creation time:	15. 06. 2019 18:56

#	Modifying user name:	WinNT
#	Modification time:	15. 06. 2019 18:56

#	Program:	/corina/corina34_cracker 3.40 0067  02.08.2006

@<TRIPOS>MOLECULE
ASD01028162
  61   64    0    0    0
SMALL
NO_CHARGES


@<TRIPOS>ATOM
   1 C1             1.8896    -2.2423     1.3996 C.ar    
   2 C2             0.9444    -1.5998     0.5813 C.ar    
   3 C3             1.3244    -0.4411    -0.1053 C.ar    
   4 C4             2.6187     0.0220     0.0527 C.ar    
   5 C5             3.4926    -0.6651     0.8760 C.ar    
   6 N6             3.1155    -1.7555     1.5148 N.ar    
   7 C7            -0.4219    -2.1370     0.4485 C.2     
   8 O8            -0.7087    -3.2025     0.9596 O.2     
   9 N9            -1.3532    -1.4472    -0.2395 N.am    
  10 N10            1.5357    -3.3854     2.0924 N.pl3   
  11 C11            2.5482    -4.1268     2.8483 C.3     
  12 C12            1.2509    -7.6173     3.4869 C.ar    
  13 C13            1.8451    -6.5431     2.8520 C.ar    
  14 C14            1.9085    -5.3222     3.5062 C.ar    
  15 C15            1.3697    -5.2275     4.7802 C.ar    
  16 C16            0.7915    -6.3451     5.3517 C.ar    
  17 N17            0.7486    -7.4905     4.6996 N.ar    
  18 C18           -2.6167    -2.0052    -0.4583 C.ar    
  19 C19           -3.7386    -1.1889    -0.5037 C.ar    
  20 C20           -4.9889    -1.7456    -0.7213 C.ar    
  21 C21           -5.1167    -3.1171    -0.8932 C.ar    
  22 C22           -3.9990    -3.9281    -0.8473 C.ar    
  23 C23           -2.7501    -3.3763    -0.6363 C.ar    
  24 C24           -4.1418    -5.4167    -1.0340 C.3     
  25 F25           -5.4892    -5.7342    -1.2364 F       
  26 F26           -3.3953    -5.8210    -2.1460 F       
  27 F27           -3.6735    -6.0768     0.1071 F       
  28 O28           -6.0892    -0.9493    -0.7658 O.3     
  29 C29           -5.8835     0.4526    -0.5803 C.3     
  30 N30           -8.0942     0.7979     0.4812 N.3     
  31 C31           -7.2267     1.1805    -0.6625 C.3     
  32 C32           -7.0246     2.7029    -0.5053 C.3     
  33 C33           -8.2367     3.1852     0.3180 C.3     
  34 C34           -9.0692     1.9137     0.5890 C.3     
  35 C35           -8.7783    -0.4756     0.2202 C.3     
  36 H36            0.6248     0.0786    -0.7431 H       
  37 H37            2.9444     0.9132    -0.4632 H       
  38 H38            4.5024    -0.3021     0.9977 H       
  39 H39           -1.1471    -0.5637    -0.5827 H       
  40 H40            0.6170    -3.6964     2.0779 H       
  41 H41            3.3340    -4.4619     2.1712 H       
  42 H42            2.9784    -3.4788     3.6118 H       
  43 H43            1.1935    -8.5704     2.9824 H       
  44 H44            2.2550    -6.6533     1.8589 H       
  45 H45            1.4017    -4.2922     5.3193 H       
  46 H46            0.3696    -6.2796     6.3437 H       
  47 H47           -3.6373    -0.1221    -0.3693 H       
  48 H48           -6.0912    -3.5508    -1.0628 H       
  49 H49           -1.8774    -4.0119    -0.6057 H       
  50 H50           -5.4346     0.6277     0.3975 H       
  51 H51           -5.2184     0.8282    -1.3579 H       
  52 H52           -7.7232     0.9584    -1.6071 H       
  53 H53           -6.0975     2.9085     0.0298 H       
  54 H54           -7.0140     3.1862    -1.4822 H       
  55 H55           -7.9045     3.6276     1.2572 H       
  56 H56           -8.8210     3.9053    -0.2548 H       
  57 H57           -9.8540     1.8064    -0.1597 H       
  58 H58           -9.4995     1.9471     1.5899 H       
  59 H59           -8.0381    -1.2605     0.0652 H       
  60 H60           -9.4066    -0.7320     1.0732 H       
  61 H61           -9.3978    -0.3792    -0.6714 H       
@<TRIPOS>BOND
   1    1    2 ar
   2    1    6 ar
   3    1   10 1
   4    2    3 ar
   5    2    7 1
   6    3    4 ar
   7    3   36 1
   8    4    5 ar
   9    4   37 1
  10    5    6 ar
  11    5   38 1
  12    7    8 2
  13    7    9 am
  14    9   18 1
  15    9   39 1
  16   10   11 1
  17   10   40 1
  18   11   14 1
  19   11   41 1
  20   11   42 1
  21   12   13 ar
  22   12   17 ar
  23   12   43 1
  24   13   14 ar
  25   13   44 1
  26   14   15 ar
  27   15   16 ar
  28   15   45 1
  29   16   17 ar
  30   16   46 1
  31   18   19 ar
  32   18   23 ar
  33   19   20 ar
  34   19   47 1
  35   20   21 ar
  36   20   28 1
  37   21   22 ar
  38   21   48 1
  39   22   23 ar
  40   22   24 1
  41   23   49 1
  42   24   25 1
  43   24   26 1
  44   24   27 1
  45   28   29 1
  46   29   31 1
  47   29   50 1
  48   29   51 1
  49   30   31 1
  50   30   34 1
  51   30   35 1
  52   31   32 1
  53   31   52 1
  54   32   33 1
  55   32   53 1
  56   32   54 1
  57   33   34 1
  58   33   55 1
  59   33   56 1
  60   34   57 1
  61   34   58 1
  62   35   59 1
  63   35   60 1
  64   35   61 1

#	End of record

