#	Name: ASD02198404
#	Creating user name:	WinNT
#	Creation time:	15. 06. 2019 20:19

#	Modifying user name:	WinNT
#	Modification time:	15. 06. 2019 20:19

#	Program:	/corina/corina34_cracker 3.40 0067  02.08.2006

@<TRIPOS>MOLECULE
ASD02198404
  38   41    0    0    0
SMALL
NO_CHARGES


@<TRIPOS>ATOM
   1 C1            -0.2139     1.0702    -0.3399 C.2     
   2 C2            -0.1176    -0.2751    -0.3553 C.2     
   3 S3             1.3945     1.7712    -0.2166 S.3     
   4 C4             2.1238     0.1712    -0.1922 C.2     
   5 C5             1.1695    -0.7617    -0.2738 C.2     
   6 S6             3.8519    -0.1536    -0.0784 S.o2    
   7 N7             4.4415    -0.2178    -1.6245 N.am    
   8 C8             4.3245     0.8909    -2.4619 C.ar    
   9 C9             4.0844     0.7175    -3.8428 C.ar    
  10 C10            3.9695     1.8616    -4.6696 C.ar    
  11 C11            4.0955     3.1424    -4.1083 C.ar    
  12 C12            4.3274     3.2792    -2.7732 C.ar    
  13 C13            4.4365     2.1644    -1.9475 C.ar    
  14 N14            3.9660    -0.5023    -4.3737 N.ar    
  15 C15            3.7435    -0.6696    -5.6547 C.ar    
  16 C16            3.6202     0.4121    -6.5243 C.ar    
  17 C17            3.7301     1.6865    -6.0462 C.ar    
  18 O18            4.4364     0.9916     0.5267 O.2     
  19 O19            3.9795    -1.4647     0.4545 O.2     
  20 C20           -1.4741     1.8359    -0.4205 C.ar    
  21 N21           -2.6324     1.1915    -0.5172 N.ar    
  22 C22           -1.4402     3.2311    -0.3888 C.ar    
  23 C23           -2.6292     3.9337    -0.4648 C.ar    
  24 C24           -3.8157     3.2204    -0.5702 C.ar    
  25 C25           -3.7778     1.8385    -0.5908 C.ar    
  26 H26           -0.9809    -0.9202    -0.4255 H       
  27 H27            1.3908    -1.8188    -0.2755 H       
  28 H28            4.8682    -1.0268    -1.9477 H       
  29 H29            4.0091     4.0180    -4.7346 H       
  30 H30            4.4236     4.2674    -2.3484 H       
  31 H31            4.6202     2.2987    -0.8917 H       
  32 H32            3.6538    -1.6721    -6.0463 H       
  33 H33            3.4377     0.2428    -7.5752 H       
  34 H34            3.6369     2.5366    -6.7058 H       
  35 H35           -0.4991     3.7544    -0.3058 H       
  36 H36           -2.6346     5.0134    -0.4423 H       
  37 H37           -4.7603     3.7403    -0.6310 H       
  38 H38           -4.6995     1.2817    -0.6727 H       
@<TRIPOS>BOND
   1    1    2 2
   2    1    3 1
   3    1   20 1
   4    2    5 1
   5    2   26 1
   6    3    4 1
   7    4    5 2
   8    4    6 1
   9    5   27 1
  10    6    7 am
  11    6   18 2
  12    6   19 2
  13    7    8 1
  14    7   28 1
  15    8    9 ar
  16    8   13 ar
  17    9   10 ar
  18    9   14 ar
  19   10   11 ar
  20   10   17 ar
  21   11   12 ar
  22   11   29 1
  23   12   13 ar
  24   12   30 1
  25   13   31 1
  26   14   15 ar
  27   15   16 ar
  28   15   32 1
  29   16   17 ar
  30   16   33 1
  31   17   34 1
  32   20   21 ar
  33   20   22 ar
  34   21   25 ar
  35   22   23 ar
  36   22   35 1
  37   23   24 ar
  38   23   36 1
  39   24   25 ar
  40   24   37 1
  41   25   38 1

#	End of record

