#	Name: ASD01883523
#	Creating user name:	WinNT
#	Creation time:	15. 06. 2019 19:46

#	Modifying user name:	WinNT
#	Modification time:	15. 06. 2019 19:46

#	Program:	/corina/corina34_cracker 3.40 0067  02.08.2006

@<TRIPOS>MOLECULE
ASD01883523
  63   66    0    0    0
SMALL
NO_CHARGES


@<TRIPOS>ATOM
   1 N1             0.0020     1.3083    -0.0152 N.am    
   2 C2            -0.7509     1.3813     1.0980 C.2     
   3 C3            -1.9988     0.7165     1.1506 C.2     
   4 C4            -2.4239    -0.0108     0.0261 C.2     
   5 C5            -1.5921    -0.0497    -1.1083 C.2     
   6 C6            -0.4126     0.6089    -1.1035 C.2     
   7 O7            -0.3580     2.0192     2.0601 O.2     
   8 C8            -2.8125     0.7833     2.3271 C.1     
   9 N9            -3.4580     0.8362     3.2604 N.1     
  10 C10            1.2918     2.0018    -0.0563 C.3     
  11 C11            2.3913     1.0642     0.4467 C.3     
  12 C12            3.7383     1.7885     0.4038 C.3     
  13 C13            4.8168     0.8967     1.0222 C.3     
  14 C14            4.1044     2.0990    -1.0489 C.3     
  15 N15           -3.6309    -0.6732     0.0341 N.pl3   
  16 C16           -4.8918     0.0703     0.1608 C.3     
  17 C17           -5.8138    -0.3223    -0.9980 C.3     
  18 C18           -5.9795    -1.8432    -1.0200 C.3     
  19 C19           -4.6181    -2.5054    -1.2401 C.3     
  20 C20           -3.6826    -2.1363    -0.0901 C.3     
  21 C21           -6.5663    -2.3118     0.3139 C.3     
  22 C22           -7.9537    -1.6932     0.5001 C.3     
  23 N23           -8.8251    -2.0998    -0.6098 N.3     
  24 C24           -8.3059    -1.6201    -1.8968 C.3     
  25 C25           -6.9289    -2.2365    -2.1545 C.3     
  26 C26          -10.1234    -1.6657    -0.4058 C.ar    
  27 N27          -11.0487    -1.9450    -1.3120 N.ar    
  28 C28          -12.2987    -1.5449    -1.1476 C.ar    
  29 C29          -12.6346    -0.8259    -0.0112 C.ar    
  30 C30          -11.6421    -0.5511     0.9164 C.ar    
  31 N31          -10.4126    -0.9852     0.6937 N.ar    
  32 H32           -1.8983    -0.6028    -1.9839 H       
  33 H33            0.2174     0.5719    -1.9799 H       
  34 H34            1.5107     2.3016    -1.0811 H       
  35 H35            1.2493     2.8860     0.5797 H       
  36 H36            2.1724     0.7645     1.4716 H       
  37 H37            2.4338     0.1800    -0.1892 H       
  38 H38            3.6687     2.7187     0.9677 H       
  39 H39            4.8863    -0.0335     0.4583 H       
  40 H40            5.7764     1.4127     0.9916 H       
  41 H41            4.5560     0.6756     2.0572 H       
  42 H42            4.1739     1.1688    -1.6128 H       
  43 H43            3.3360     2.7343    -1.4894 H       
  44 H44            5.0640     2.6150    -1.0795 H       
  45 H45           -5.3694    -0.1790     1.1084 H       
  46 H46           -4.6905     1.1408     0.1210 H       
  47 H47           -6.7879     0.1478    -0.8632 H       
  48 H48           -5.3763     0.0096    -1.9395 H       
  49 H49           -4.7418    -3.5877    -1.2770 H       
  50 H50           -4.1910    -2.1554    -2.1799 H       
  51 H51           -2.6838    -2.5225    -0.2933 H       
  52 H52           -4.0597    -2.5633     0.8391 H       
  53 H53           -6.6494    -3.3986     0.3132 H       
  54 H54           -5.9148    -1.9965     1.1289 H       
  55 H55           -8.3812    -2.0367     1.4421 H       
  56 H56           -7.8679    -0.6066     0.5152 H       
  57 H57           -8.9890    -1.9107    -2.6950 H       
  58 H58           -8.2186    -0.5339    -1.8712 H       
  59 H59           -6.5364    -1.8675    -3.1020 H       
  60 H60           -7.0179    -3.3222    -2.1947 H       
  61 H61          -13.0484    -1.7754    -1.8900 H       
  62 H62          -13.6476    -0.4869     0.1478 H       
  63 H63          -11.8707     0.0072     1.8122 H       
@<TRIPOS>BOND
   1    1    2 am
   2    1   10 1
   3    1    6 1
   4    2    3 1
   5    2    7 2
   6    3    4 2
   7    3    8 1
   8    4    5 1
   9    4   15 1
  10    5    6 2
  11    5   32 1
  12    6   33 1
  13    8    9 3
  14   10   11 1
  15   10   34 1
  16   10   35 1
  17   11   12 1
  18   11   36 1
  19   11   37 1
  20   12   13 1
  21   12   14 1
  22   12   38 1
  23   13   39 1
  24   13   40 1
  25   13   41 1
  26   14   42 1
  27   14   43 1
  28   14   44 1
  29   15   16 1
  30   15   20 1
  31   16   17 1
  32   16   45 1
  33   16   46 1
  34   17   18 1
  35   17   47 1
  36   17   48 1
  37   18   19 1
  38   18   21 1
  39   18   25 1
  40   19   20 1
  41   19   49 1
  42   19   50 1
  43   20   51 1
  44   20   52 1
  45   21   22 1
  46   21   53 1
  47   21   54 1
  48   22   23 1
  49   22   55 1
  50   22   56 1
  51   23   24 1
  52   23   26 1
  53   24   25 1
  54   24   57 1
  55   24   58 1
  56   25   59 1
  57   25   60 1
  58   26   27 ar
  59   26   31 ar
  60   27   28 ar
  61   28   29 ar
  62   28   61 1
  63   29   30 ar
  64   29   62 1
  65   30   31 ar
  66   30   63 1

#	End of record

