#	Name: ASD01916437
#	Creating user name:	WinNT
#	Creation time:	15. 06. 2019 20:07

#	Modifying user name:	WinNT
#	Modification time:	15. 06. 2019 20:07

#	Program:	/corina/corina34_cracker 3.40 0067  02.08.2006

@<TRIPOS>MOLECULE
ASD01916437
  33   34    0    0    0
SMALL
NO_CHARGES


@<TRIPOS>ATOM
   1 C1            -0.0466     1.4850     0.2242 C.2     
   2 C2            -0.0457    -0.0219     0.2062 C.3     
   3 C3             1.3741    -0.5342     0.4563 C.3     
   4 C4             1.3749    -2.0061     0.4386 C.1     
   5 C5             1.3756    -3.1800     0.4245 C.1     
   6 O6             0.9868     2.0897     0.4181 O.2     
   7 N7            -1.1946     2.1607     0.0195 N.am    
   8 C8             1.3763    -4.6119     0.4074 C.ar    
   9 C9             2.5690    -5.3061     0.6143 C.ar    
  10 C10            2.5532    -6.6894     0.5947 C.ar    
  11 C11            1.3456    -7.3355     0.3689 C.ar    
  12 C12            0.2010    -6.5855     0.1713 C.ar    
  13 N13            0.2411    -5.2690     0.2000 N.ar    
  14 C14           -1.2153     3.5552     0.1328 C.ar    
  15 C15           -0.1181     4.3024    -0.2744 C.ar    
  16 C16           -0.1420     5.6807    -0.1610 C.ar    
  17 C17           -1.2592     6.3141     0.3582 C.ar    
  18 C18           -2.3518     5.5710     0.7642 C.ar    
  19 C19           -2.3355     4.1946     0.6473 C.ar    
  20 F20            0.9248     6.4093    -0.5562 F       
  21 H21           -0.7093    -0.3950     0.9863 H       
  22 H22           -0.3931    -0.3738    -0.7652 H       
  23 H23            2.0376    -0.1611    -0.3238 H       
  24 H24            1.7214    -0.1823     1.4277 H       
  25 H25           -2.0064     1.6803    -0.2065 H       
  26 H26            3.4912    -4.7712     0.7869 H       
  27 H27            3.4605    -7.2540     0.7513 H       
  28 H28            1.3005    -8.4143     0.3473 H       
  29 H29           -0.7398    -7.0858    -0.0050 H       
  30 H30            0.7528     3.8081    -0.6788 H       
  31 H31           -1.2765     7.3904     0.4463 H       
  32 H32           -3.2213     6.0676     1.1689 H       
  33 H33           -3.1917     3.6157     0.9605 H       
@<TRIPOS>BOND
   1    1    2 1
   2    1    6 2
   3    1    7 am
   4    2    3 1
   5    2   21 1
   6    2   22 1
   7    3    4 1
   8    3   23 1
   9    3   24 1
  10    4    5 3
  11    5    8 1
  12    7   14 1
  13    7   25 1
  14    8    9 ar
  15    8   13 ar
  16    9   10 ar
  17    9   26 1
  18   10   11 ar
  19   10   27 1
  20   11   12 ar
  21   11   28 1
  22   12   13 ar
  23   12   29 1
  24   14   15 ar
  25   14   19 ar
  26   15   16 ar
  27   15   30 1
  28   16   17 ar
  29   16   20 1
  30   17   18 ar
  31   17   31 1
  32   18   19 ar
  33   18   32 1
  34   19   33 1

#	End of record

