#	Name: ASD01912546
#	Creating user name:	WinNT
#	Creation time:	15. 06. 2019 19:59

#	Modifying user name:	WinNT
#	Modification time:	15. 06. 2019 19:59

#	Program:	/corina/corina34_cracker 3.40 0067  02.08.2006

@<TRIPOS>MOLECULE
ASD01912546
  41   43    0    0    0
SMALL
NO_CHARGES


@<TRIPOS>ATOM
   1 C1            -1.0330    -0.5859     2.4057 C.ar    
   2 C2            -0.4983    -0.9829     1.1825 C.ar    
   3 C3             0.7291    -1.6411     1.1821 C.ar    
   4 N4             1.3380    -1.8637     2.3349 N.ar    
   5 C5             0.7986    -1.4720     3.4718 C.ar    
   6 N6            -0.3607    -0.8465     3.5145 N.ar    
   7 N7            -1.1761    -0.7279    -0.0135 N.pl3   
   8 C8            -2.4483    -0.1658     0.0142 C.ar    
   9 N9            -3.5141    -0.9524    -0.0271 N.ar    
  10 C10           -4.7405    -0.4642    -0.0027 C.ar    
  11 C11           -4.9608     0.8946     0.0669 C.ar    
  12 C12           -3.8673     1.7612     0.1124 C.ar    
  13 C13           -2.5887     1.2134     0.0907 C.ar    
  14 N14           -4.0521     3.1420     0.1827 N.am    
  15 C15           -3.1940     3.9014     0.8921 C.2     
  16 C16           -3.4466     5.3490     1.0520 C.ar    
  17 C17           -2.5598     6.1383     1.7860 C.ar    
  18 O18           -2.2122     3.3960     1.4003 O.2     
  19 C19           -2.8007     7.4891     1.9315 C.ar    
  20 C20           -3.9184     8.0620     1.3523 C.ar    
  21 C21           -4.8028     7.2852     0.6226 C.ar    
  22 C22           -4.5701     5.9335     0.4648 C.ar    
  23 Cl23          -6.2029     8.0135    -0.1005 Cl      
  24 C24           -0.5466    -1.0526    -1.2958 C.3     
  25 C25           -0.9092    -2.4847    -1.6939 C.3     
  26 H26           -1.9804    -0.0691     2.4479 H       
  27 H27            1.1768    -1.9653     0.2542 H       
  28 H28            1.3220    -1.6693     4.3957 H       
  29 H29           -5.5830    -1.1390    -0.0381 H       
  30 H30           -5.9678     1.2845     0.0857 H       
  31 H31           -1.7183     1.8518     0.1245 H       
  32 H32           -4.7983     3.5555    -0.2789 H       
  33 H33           -1.6869     5.6924     2.2396 H       
  34 H34           -2.1149     8.1004     2.4993 H       
  35 H35           -4.1026     9.1197     1.4699 H       
  36 H36           -5.2599     5.3284    -0.1047 H       
  37 H37           -0.9022    -0.3619    -2.0604 H       
  38 H38            0.5358    -0.9646    -1.2018 H       
  39 H39           -1.9916    -2.5727    -1.7879 H       
  40 H40           -0.4408    -2.7263    -2.6480 H       
  41 H41           -0.5536    -3.1754    -0.9293 H       
@<TRIPOS>BOND
   1    1    2 ar
   2    1    6 ar
   3    1   26 1
   4    2    3 ar
   5    2    7 1
   6    3    4 ar
   7    3   27 1
   8    4    5 ar
   9    5    6 ar
  10    5   28 1
  11    7    8 1
  12    7   24 1
  13    8    9 ar
  14    8   13 ar
  15    9   10 ar
  16   10   11 ar
  17   10   29 1
  18   11   12 ar
  19   11   30 1
  20   12   13 ar
  21   12   14 1
  22   13   31 1
  23   14   15 am
  24   14   32 1
  25   15   16 1
  26   15   18 2
  27   16   17 ar
  28   16   22 ar
  29   17   19 ar
  30   17   33 1
  31   19   20 ar
  32   19   34 1
  33   20   21 ar
  34   20   35 1
  35   21   22 ar
  36   21   23 1
  37   22   36 1
  38   24   25 1
  39   24   37 1
  40   24   38 1
  41   25   39 1
  42   25   40 1
  43   25   41 1

#	End of record

