#	Name: ASD01230243
#	Creating user name:	WinNT
#	Creation time:	15. 06. 2019 19:12

#	Modifying user name:	WinNT
#	Modification time:	15. 06. 2019 19:12

#	Program:	/corina/corina34_cracker 3.40 0067  02.08.2006

@<TRIPOS>MOLECULE
ASD01230243
  43   45    0    0    0
SMALL
NO_CHARGES


@<TRIPOS>ATOM
   1 C1            -0.0185     1.5124     0.0104 C.2     
   2 C2            -6.6301     6.4582    -0.6482 C.2     
   3 C3            -5.3455     6.5524     1.1664 C.2     
   4 C4            -0.5856     3.9506     0.0258 C.2     
   5 C5             1.7757     4.7526     0.0154 C.2     
   6 C6             2.4918     1.7270    -0.0128 C.3     
   7 C7             1.3935    -0.4748    -0.4298 C.3     
   8 C8            -3.1015     6.7360     0.0600 C.3     
   9 C9            -6.6294     6.4533     0.7505 C.2     
  10 C10            0.7575     3.6976     0.0146 C.2     
  11 C11            1.0764     2.2817     0.0040 C.2     
  12 C12           -2.4893     5.3590     0.0476 C.2     
  13 C13            0.0021    -0.0041     0.0020 C.3     
  14 C14            2.4494     0.2556     0.4059 C.3     
  15 C15           -4.8750     6.5802     2.5978 C.3     
  16 C16           -7.8477     6.3660    -1.5315 C.3     
  17 N17           -5.3917     6.5623    -1.0573 N.2     
  18 N18           -4.5620     6.6210     0.0699 N.pl3   
  19 N19            2.2360     5.2458    -1.1514 N.am    
  20 N20           -1.1490     5.2176     0.0371 N.am    
  21 O21            2.2053     5.1829     1.0697 O.2     
  22 O22           -3.2026     4.3782     0.0472 O.2     
  23 F23           -8.3274     7.6524    -1.8002 F       
  24 F24           -7.5057     5.7354    -2.7326 F       
  25 F25           -8.8402     5.6245    -0.8817 F       
  26 S26           -1.4722     2.4972     0.0219 S.3     
  27 H27            2.9047     1.8090    -1.0183 H       
  28 H28            3.1143     2.2875     0.6846 H       
  29 H29            1.4809    -1.5494    -0.2693 H       
  30 H30            1.5439    -0.2491    -1.4855 H       
  31 H31           -2.7732     7.2717     0.9507 H       
  32 H32           -2.7861     7.2819    -0.8292 H       
  33 H33           -7.4997     6.3835     1.3861 H       
  34 H34           -0.2162    -0.3781     1.0023 H       
  35 H35           -0.7439    -0.3759    -0.7004 H       
  36 H36            3.4256    -0.1992     0.2378 H       
  37 H37            2.1907     0.1849     1.4624 H       
  38 H38           -4.8421     7.6113     2.9495 H       
  39 H39           -5.5639     6.0066     3.2180 H       
  40 H40           -3.8787     6.1426     2.6613 H       
  41 H41            1.8937     4.9028    -1.9916 H       
  42 H42            2.9097     5.9437    -1.1508 H       
  43 H43           -0.5785     6.0021     0.0375 H       
@<TRIPOS>BOND
   1    1   13 1
   2    1   11 2
   3    1   26 1
   4    2   16 1
   5    2    9 1
   6    2   17 2
   7    3   18 1
   8    3    9 2
   9    3   15 1
  10    4   10 2
  11    4   26 1
  12    4   20 1
  13    5   10 1
  14    5   19 am
  15    5   21 2
  16    6   14 1
  17    6   27 1
  18    6   28 1
  19    6   11 1
  20    7   14 1
  21    7   13 1
  22    7   29 1
  23    7   30 1
  24    8   12 1
  25    8   18 1
  26    8   31 1
  27    8   32 1
  28    9   33 1
  29   10   11 1
  30   12   22 2
  31   12   20 am
  32   13   34 1
  33   13   35 1
  34   14   36 1
  35   14   37 1
  36   15   38 1
  37   15   39 1
  38   15   40 1
  39   16   23 1
  40   16   25 1
  41   16   24 1
  42   17   18 1
  43   19   41 1
  44   19   42 1
  45   20   43 1

#	End of record

