#	Name: ASD00451017
#	Creating user name:	WinNT
#	Creation time:	15. 06. 2019 18:36

#	Modifying user name:	WinNT
#	Modification time:	15. 06. 2019 18:36

#	Program:	/corina/corina34_cracker 3.40 0067  02.08.2006

@<TRIPOS>MOLECULE
ASD00451017
  49   52    0    0    0
SMALL
NO_CHARGES


@<TRIPOS>ATOM
   1 C1             0.5060     0.6828     0.3954 C.ar    
   2 C2             0.9004    -0.6387     0.5525 C.ar    
   3 N3             1.4700     1.6881     0.2426 N.am    
   4 C4            -0.8438     1.0081     0.3840 C.ar    
   5 C5            -0.0490    -1.6318     0.7030 C.ar    
   6 C6             2.6572     1.5844     0.8719 C.2     
   7 C7            -1.7956     0.0130     0.5294 C.ar    
   8 C8            -1.3967    -1.3102     0.6978 C.ar    
   9 O9             2.8572     0.6682     1.6458 O.2     
  10 N10            3.6229     2.4964     0.6434 N.am    
  11 O11           -2.3302    -2.2893     0.8408 O.3     
  12 C12            4.8147     2.4520     1.3755 C.ar    
  13 C13           -2.8951    -2.8006    -0.2832 C.ar    
  14 C14            6.0043     2.8700     0.7941 C.ar    
  15 C15            4.8091     1.9950     2.6870 C.ar    
  16 C16           -3.7826    -3.8717    -0.2149 C.ar    
  17 C17           -2.6076    -2.2649    -1.5366 C.ar    
  18 C18            7.1790     2.8248     1.5195 C.ar    
  19 C19            5.9868     1.9523     3.4068 C.ar    
  20 N20           -4.2918    -4.6341     0.8344 N.am    
  21 C21           -4.3434    -4.3706    -1.3909 C.ar    
  22 C22           -3.2014    -2.8119    -2.6563 C.ar    
  23 C23            7.1711     2.3636     2.8228 C.ar    
  24 C24           -5.1259    -5.5562     0.3165 C.2     
  25 N25           -5.1716    -5.4232    -1.0221 N.am    
  26 N26           -4.0345    -3.8307    -2.5604 N.ar    
  27 O27           -5.7389    -6.3874     0.9600 O.2     
  28 H28            1.2828     2.4586    -0.3162 H       
  29 H29            3.4918     3.1836    -0.0286 H       
  30 H30           -4.0817    -4.5208     1.7746 H       
  31 H31           -5.6995    -5.9672    -1.6274 H       
  32 O32           -3.1181     0.3291     0.5186 O.3     
  33 C33           -3.4541     1.7082     0.3531 C.3     
  34 C34            8.4706     3.2783     0.8893 C.3     
  35 F35            8.6506     4.6452     1.1266 F       
  36 F36            9.5370     2.5641     1.4459 F       
  37 F37            8.4233     3.0466    -0.4896 F       
  38 H38            1.9505    -0.8913     0.5568 H       
  39 H39           -1.1511     2.0363     0.2622 H       
  40 H40            0.2599    -2.6596     0.8243 H       
  41 H41            6.0112     3.2297    -0.2242 H       
  42 H42            3.8846     1.6737     3.1436 H       
  43 H43           -1.9280    -1.4308    -1.6313 H       
  44 H44            5.9831     1.5970     4.4267 H       
  45 H45           -2.9803    -2.3980    -3.6290 H       
  46 H46            8.0910     2.3289     3.3877 H       
  47 H47           -3.0211     2.2880     1.1681 H       
  48 H48           -3.0595     2.0668    -0.5976 H       
  49 H49           -4.5382     1.8216     0.3624 H       
@<TRIPOS>BOND
   1    1    2 ar
   2    1    3 1
   3    1    4 ar
   4    2    5 ar
   5    2   38 1
   6    3   28 1
   7    3    6 am
   8    4    7 ar
   9    4   39 1
  10    5    8 ar
  11    5   40 1
  12    6    9 2
  13    6   10 am
  14    7   32 1
  15    7    8 ar
  16    8   11 1
  17   10   12 1
  18   10   29 1
  19   11   13 1
  20   12   14 ar
  21   12   15 ar
  22   13   16 ar
  23   13   17 ar
  24   14   18 ar
  25   14   41 1
  26   15   19 ar
  27   15   42 1
  28   16   20 1
  29   16   21 ar
  30   17   22 ar
  31   17   43 1
  32   18   23 ar
  33   18   34 1
  34   19   23 ar
  35   19   44 1
  36   20   30 1
  37   20   24 am
  38   21   26 ar
  39   21   25 1
  40   22   26 ar
  41   22   45 1
  42   23   46 1
  43   24   25 am
  44   24   27 2
  45   25   31 1
  46   32   33 1
  47   33   47 1
  48   33   48 1
  49   33   49 1
  50   34   35 1
  51   34   36 1
  52   34   37 1

#	End of record

