#	Name: ASD01028845
#	Creating user name:	WinNT
#	Creation time:	15. 06. 2019 18:58

#	Modifying user name:	WinNT
#	Modification time:	15. 06. 2019 18:58

#	Program:	/corina/corina34_cracker 3.40 0067  02.08.2006

@<TRIPOS>MOLECULE
ASD01028845
  45   49    0    0    0
SMALL
NO_CHARGES


@<TRIPOS>ATOM
   1 C1            -0.0157     1.3060     0.0092 C.ar    
   2 N2             0.0021    -0.0041     0.0020 N.ar    
   3 C3             1.1645     2.0563     0.0020 C.ar    
   4 C4             2.3770     1.4188    -0.0130 C.ar    
   5 C5             2.3867     0.0119    -0.0207 C.ar    
   6 C6             1.1525    -0.6850    -0.0126 C.ar    
   7 C7             3.5911    -0.7100    -0.0356 C.ar    
   8 C8             3.5598    -2.0712    -0.0422 C.ar    
   9 C9             2.3478    -2.7583    -0.0348 C.ar    
  10 C10            1.1619    -2.0906    -0.0203 C.ar    
  11 C11            4.8530    -2.8448    -0.0582 C.3     
  12 C12            5.2974    -3.1098     1.3572 C.2     
  13 N13            6.4195    -3.7808     1.7366 N.pl3   
  14 C14            6.4139    -3.7761     3.1099 C.2     
  15 N15            5.3258    -3.1248     3.4862 N.2     
  16 N16            4.6784    -2.7323     2.4459 N.2     
  17 C17            7.4281    -4.3849     1.0491 C.2     
  18 C18            8.4490    -4.9949     1.7158 C.2     
  19 C19            8.4665    -5.0041     3.1328 C.2     
  20 C20            7.4612    -4.4016     3.8204 C.2     
  21 C21            9.5383    -5.6479     0.9598 C.2     
  22 F22            4.6607    -4.0611    -0.7221 F       
  23 F23            5.8334    -2.1005    -0.7231 F       
  24 O24            9.4338    -6.7219     0.1568 O.3     
  25 N25           10.5026    -7.0209    -0.3226 N.2     
  26 C26           11.4534    -6.2219     0.0714 C.2     
  27 C27           10.8559    -5.2781     0.9311 C.2     
  28 F28            7.4638    -4.4014     5.1714 F       
  29 C29           12.9071    -6.2901    -0.3199 C.3     
  30 O30            1.1087     3.4142     0.0094 O.3     
  31 C31           -0.1901     4.0101     0.0245 C.3     
  32 H32           -0.9658     1.8194     0.0165 H       
  33 H33            3.2995     1.9804    -0.0192 H       
  34 H34            4.5368    -0.1884    -0.0421 H       
  35 H35            2.3494    -3.8383    -0.0407 H       
  36 H36            0.2314    -2.6388    -0.0145 H       
  37 H37            7.4191    -4.3809    -0.0309 H       
  38 H38            9.2740    -5.4870     3.6630 H       
  39 H39           11.3286    -4.4576     1.4504 H       
  40 H40           13.0711    -5.6895    -1.2146 H       
  41 H41           13.5210    -5.9047     0.4941 H       
  42 H42           13.1806    -7.3257    -0.5224 H       
  43 H43           -0.7429     3.6991    -0.8619 H       
  44 H44           -0.7263     3.6900     0.9180 H       
  45 H45           -0.0918     5.0956     0.0291 H       
@<TRIPOS>BOND
   1    1    2 ar
   2    1    3 ar
   3    1   32 1
   4    2    6 ar
   5    3    4 ar
   6    3   30 1
   7    4    5 ar
   8    4   33 1
   9    5    6 ar
  10    5    7 ar
  11    6   10 ar
  12    7    8 ar
  13    7   34 1
  14    8    9 ar
  15    8   11 1
  16    9   10 ar
  17    9   35 1
  18   10   36 1
  19   11   12 1
  20   11   22 1
  21   11   23 1
  22   12   13 1
  23   12   16 2
  24   13   14 1
  25   13   17 1
  26   14   15 2
  27   14   20 1
  28   15   16 1
  29   17   18 2
  30   17   37 1
  31   18   19 1
  32   18   21 1
  33   19   20 2
  34   19   38 1
  35   20   28 1
  36   21   24 1
  37   21   27 2
  38   24   25 1
  39   25   26 2
  40   26   27 1
  41   26   29 1
  42   27   39 1
  43   29   40 1
  44   29   41 1
  45   29   42 1
  46   30   31 1
  47   31   43 1
  48   31   44 1
  49   31   45 1

#	End of record

