#	Name: ASD00171017
#	Creating user name:	WinNT
#	Creation time:	15. 06. 2019 18:32

#	Modifying user name:	WinNT
#	Modification time:	15. 06. 2019 18:32

#	Program:	/corina/corina34_cracker 3.40 0067  02.08.2006

@<TRIPOS>MOLECULE
ASD00171017
  52   55    0    0    0
SMALL
NO_CHARGES


@<TRIPOS>ATOM
   1 C1            -0.5299     1.2099     0.2784 C.2     
   2 O2            -0.5361    -0.0036     0.2830 O.2     
   3 C3             0.7372     1.9351     0.1644 C.ar    
   4 C4             0.7509     3.3479     0.1584 C.ar    
   5 C5             1.9667     4.0223     0.0491 C.ar    
   6 C6             3.1442     3.3104    -0.0521 C.ar    
   7 C7             3.1317     1.9213    -0.0468 C.ar    
   8 C8             1.9453     1.2338     0.0663 C.ar    
   9 Cl9            4.6534     4.1574    -0.1878 Cl      
  10 C10           -1.2567     4.4862    -0.8156 C.2     
  11 C11           -0.5113     4.1039     0.2665 C.2     
  12 C12           -1.0869     4.5153     1.5238 C.2     
  13 C13           -2.2252     5.1845     1.4092 C.2     
  14 S14           -2.6812     5.3616    -0.2768 S.3     
  15 C15           -0.4484     4.2097     2.8542 C.3     
  16 N16            0.6348     5.1686     3.1094 N.3     
  17 C17            1.1233     5.0559     4.4902 C.3     
  18 C18            2.3644     5.9379     4.6630 C.3     
  19 N19            2.0309     7.3037     4.2308 N.am    
  20 C20            1.4092     7.4833     2.9100 C.3     
  21 C21            0.2057     6.5405     2.8063 C.3     
  22 C22            2.2885     8.3625     5.0239 C.2     
  23 C23            2.0617     9.7340     4.5223 C.ar    
  24 C24            1.5257    10.7090     5.3657 C.ar    
  25 C25            1.3162    11.9869     4.8919 C.ar    
  26 C26            1.6359    12.3040     3.5821 C.ar    
  27 C27            2.1675    11.3409     2.7405 C.ar    
  28 C28            2.3877    10.0612     3.2048 C.ar    
  29 O29            2.7076     8.1894     6.1518 O.2     
  30 Cl30           1.3688    13.9149     2.9926 Cl      
  31 N31           -0.9329     4.2266    -2.1398 N.pl3   
  32 H32           -1.4592     1.7550     0.3538 H       
  33 H33            1.9865     5.1021     0.0433 H       
  34 H34            4.0610     1.3769    -0.1271 H       
  35 H35            1.9454     0.1538     0.0749 H       
  36 H36           -2.7959     5.5691     2.2416 H       
  37 H37           -1.1967     4.2885     3.6429 H       
  38 H38           -0.0422     3.1984     2.8385 H       
  39 H39            0.3451     5.3841     5.1792 H       
  40 H40            1.3822     4.0183     4.7008 H       
  41 H41            2.6632     5.9483     5.7112 H       
  42 H42            3.1782     5.5487     4.0512 H       
  43 H43            1.0765     8.5154     2.7993 H       
  44 H44            2.1312     7.2427     2.1297 H       
  45 H45           -0.2009     6.5795     1.7957 H       
  46 H46           -0.5598     6.8480     3.5188 H       
  47 H47            1.2753    10.4627     6.3870 H       
  48 H48            0.9016    12.7420     5.5434 H       
  49 H49            2.4146    11.5939     1.7200 H       
  50 H50            2.8071     9.3124     2.5492 H       
  51 H51           -0.1225     3.7384    -2.3542 H       
  52 H52           -1.5169     4.5332    -2.8510 H       
@<TRIPOS>BOND
   1    1    2 2
   2    1    3 1
   3    1   32 1
   4    3    4 ar
   5    3    8 ar
   6    4    5 ar
   7    4   11 1
   8    5    6 ar
   9    5   33 1
  10    6    7 ar
  11    6    9 1
  12    7    8 ar
  13    7   34 1
  14    8   35 1
  15   10   11 2
  16   10   14 1
  17   10   31 1
  18   11   12 1
  19   12   13 2
  20   12   15 1
  21   13   14 1
  22   13   36 1
  23   15   16 1
  24   15   37 1
  25   15   38 1
  26   16   17 1
  27   16   21 1
  28   17   18 1
  29   17   39 1
  30   17   40 1
  31   18   19 1
  32   18   41 1
  33   18   42 1
  34   19   20 1
  35   19   22 am
  36   20   21 1
  37   20   43 1
  38   20   44 1
  39   21   45 1
  40   21   46 1
  41   22   23 1
  42   22   29 2
  43   23   24 ar
  44   23   28 ar
  45   24   25 ar
  46   24   47 1
  47   25   26 ar
  48   25   48 1
  49   26   27 ar
  50   26   30 1
  51   27   28 ar
  52   27   49 1
  53   28   50 1
  54   31   51 1
  55   31   52 1

#	End of record

