#	Name: ASD08178433
#	Creating user name:	WinNT
#	Creation time:	15. 06. 2019 21:18

#	Modifying user name:	WinNT
#	Modification time:	15. 06. 2019 21:18

#	Program:	/corina/corina34_cracker 3.40 0067  02.08.2006

@<TRIPOS>MOLECULE
ASD08178433
  76   78    0    0    0
SMALL
NO_CHARGES


@<TRIPOS>ATOM
   1 N1            -0.0175     1.2958     0.4994 N.am    
   2 C2             0.1032     0.0070    -0.0093 C.2     
   3 C3            -0.9975    -0.6769    -0.3804 C.2     
   4 N4             1.3583    -0.5755    -0.1351 N.pl3   
   5 N5            -3.2230    -2.1315    -1.1596 N.pl3   
   6 C6            -1.9632    -2.7162    -1.2858 C.2     
   7 C7            -0.8701    -2.0369    -0.9173 C.2     
   8 C8            -1.8324    -4.1126    -1.8371 C.3     
   9 C9            -2.0283    -5.1269    -0.7084 C.3     
  10 C10           -1.8955    -6.5447    -1.2681 C.3     
  11 C11           -2.0913    -7.5589    -0.1395 C.3     
  12 C12           -1.9605    -8.9554    -0.6907 C.2     
  13 N13           -0.8670    -9.6444    -0.7743 N.2     
  14 N14           -0.9650   -10.8018    -1.2690 N.2     
  15 C15           -2.1426   -11.1979    -1.6478 C.2     
  16 S16           -3.2705    -9.9481    -1.3310 S.3     
  17 N17           -2.4394   -12.4340    -2.2118 N.am    
  18 C18           -1.4598   -13.3392    -2.4052 C.2     
  19 C19           -1.7815   -14.6787    -3.0163 C.3     
  20 O20           -0.3194   -13.0758    -2.0875 O.2     
  21 C21           -0.5212   -15.4979    -3.1229 C.ar    
  22 C22           -0.1433   -16.3233    -2.0807 C.ar    
  23 C23            1.0130   -17.0749    -2.1784 C.ar    
  24 C24            1.7909   -17.0012    -3.3185 C.ar    
  25 C25            1.4124   -16.1762    -4.3614 C.ar    
  26 C26            0.2542   -15.4282    -4.2655 C.ar    
  27 C27            1.0668     1.9337     0.9830 C.2     
  28 C28            0.9617     3.3714     1.4222 C.3     
  29 O29            2.1273     1.3505     1.0646 O.2     
  30 C30            2.3038     3.8446     1.9181 C.ar    
  31 C31            3.2018     4.4203     1.0389 C.ar    
  32 C32            4.4329     4.8543     1.4938 C.ar    
  33 C33            4.7658     4.7130     2.8280 C.ar    
  34 C34            3.8674     4.1381     3.7074 C.ar    
  35 C35            2.6346     3.7080     3.2533 C.ar    
  36 C36            2.2608   -16.0955    -5.6043 C.3     
  37 C37            3.7250   -16.3486    -5.2397 C.3     
  38 C38            1.7955   -17.1515    -6.6089 C.3     
  39 N39            2.1287   -14.7598    -6.2014 N.3     
  40 H40           -0.8813     1.7370     0.5026 H       
  41 H41           -1.9731    -0.2242    -0.2826 H       
  42 H42            2.1397    -0.0182    -0.2759 H       
  43 H43            1.4531    -1.5394    -0.0820 H       
  44 H44           -3.3072    -1.2327    -0.8047 H       
  45 H45           -4.0150    -2.6237    -1.4266 H       
  46 H46            0.1056    -2.4897    -1.0150 H       
  47 H47           -2.5895    -4.2726    -2.6047 H       
  48 H48           -0.8412    -4.2401    -2.2721 H       
  49 H49           -1.2712    -4.9669     0.0593 H       
  50 H50           -3.0195    -4.9994    -0.2733 H       
  51 H51           -2.6525    -6.7046    -2.0358 H       
  52 H52           -0.9042    -6.6722    -1.7032 H       
  53 H53           -1.3343    -7.3990     0.6282 H       
  54 H54           -3.0826    -7.4314     0.2956 H       
  55 H55           -3.3515   -12.6447    -2.4659 H       
  56 H56           -2.5024   -15.2012    -2.3876 H       
  57 H57           -2.2049   -14.5324    -4.0100 H       
  58 H58           -0.7511   -16.3810    -1.1898 H       
  59 H59            1.3086   -17.7194    -1.3637 H       
  60 H60            2.6945   -17.5878    -3.3945 H       
  61 H61           -0.0415   -14.7837    -5.0801 H       
  62 H62            0.6483     3.9869     0.5790 H       
  63 H63            0.2283     3.4536     2.2244 H       
  64 H64            2.9417     4.5307    -0.0035 H       
  65 H65            5.1347     5.3035     0.8068 H       
  66 H66            5.7279     5.0514     3.1833 H       
  67 H67            4.1277     4.0273     4.7497 H       
  68 H68            1.9327     3.2589     3.9404 H       
  69 H69            3.8230   -17.3396    -4.7966 H       
  70 H70            4.3386   -16.2902    -6.1386 H       
  71 H71            4.0565   -15.5962    -4.5240 H       
  72 H72            0.7524   -16.9712    -6.8686 H       
  73 H73            2.4091   -17.0931    -7.5078 H       
  74 H74            1.8935   -18.1426    -6.1658 H       
  75 H75            2.4300   -14.0442    -5.5570 H       
  76 H76            2.6370   -14.7006    -7.0710 H       
@<TRIPOS>BOND
   1    1    2 1
   2    1   27 am
   3    1   40 1
   4    2    3 2
   5    2    4 1
   6    3    7 1
   7    3   41 1
   8    4   42 1
   9    4   43 1
  10    5    6 1
  11    5   44 1
  12    5   45 1
  13    6    7 2
  14    6    8 1
  15    7   46 1
  16    8    9 1
  17    8   47 1
  18    8   48 1
  19    9   10 1
  20    9   49 1
  21    9   50 1
  22   10   11 1
  23   10   51 1
  24   10   52 1
  25   11   12 1
  26   11   53 1
  27   11   54 1
  28   12   13 2
  29   12   16 1
  30   13   14 1
  31   14   15 2
  32   15   16 1
  33   15   17 1
  34   17   18 am
  35   17   55 1
  36   18   19 1
  37   18   20 2
  38   19   21 1
  39   19   56 1
  40   19   57 1
  41   21   22 ar
  42   21   26 ar
  43   22   23 ar
  44   22   58 1
  45   23   24 ar
  46   23   59 1
  47   24   25 ar
  48   24   60 1
  49   25   26 ar
  50   25   36 1
  51   26   61 1
  52   27   28 1
  53   27   29 2
  54   28   30 1
  55   28   62 1
  56   28   63 1
  57   30   31 ar
  58   30   35 ar
  59   31   32 ar
  60   31   64 1
  61   32   33 ar
  62   32   65 1
  63   33   34 ar
  64   33   66 1
  65   34   35 ar
  66   34   67 1
  67   35   68 1
  68   36   37 1
  69   36   38 1
  70   36   39 1
  71   37   69 1
  72   37   70 1
  73   37   71 1
  74   38   72 1
  75   38   73 1
  76   38   74 1
  77   39   75 1
  78   39   76 1

#	End of record

