#	Name: ASD01140410
#	Creating user name:	WinNT
#	Creation time:	15. 06. 2019 19:00

#	Modifying user name:	WinNT
#	Modification time:	15. 06. 2019 19:00

#	Program:	/corina/corina34_cracker 3.40 0067  02.08.2006

@<TRIPOS>MOLECULE
ASD01140410
  42   43    0    0    0
SMALL
NO_CHARGES


@<TRIPOS>ATOM
   1 C1            -0.0167     1.3838     0.0097 C.ar    
   2 C2             0.0021    -0.0041     0.0020 C.ar    
   3 N3            -1.1191    -0.6985     0.0090 N.ar    
   4 C4            -2.2995    -0.1153     0.0239 C.ar    
   5 C5            -2.4064     1.2762     0.0328 C.ar    
   6 C6            -1.2381     2.0447     0.0307 C.ar    
   7 O7             1.1460     2.0876     0.0023 O.3     
   8 C8             2.3602     1.3342    -0.0133 C.3     
   9 C9             3.5541     2.2911    -0.0196 C.3     
  10 C10           -3.6920     1.9069     0.0484 C.1     
  11 C11            4.8666     1.4931     0.0898 C.3     
  12 C12            5.6641     1.8508    -1.1853 C.3     
  13 C13            5.0421     3.2033    -1.6149 C.3     
  14 N14            3.6009     3.0299    -1.3000 N.3     
  15 C15            2.9276     4.3302    -1.1825 C.3     
  16 C16           -4.7459     2.4240     0.0612 C.1     
  17 C17           -6.0673     3.0723     0.0773 C.3     
  18 O18           -5.9015     4.4917     0.0839 O.3     
  19 C19           -6.8545     2.6566    -1.1671 C.3     
  20 C20           -6.8312     2.6423     1.3312 C.3     
  21 H21            0.9491    -0.5231    -0.0102 H       
  22 H22           -3.1944    -0.7200     0.0288 H       
  23 H23           -1.2845     3.1237     0.0374 H       
  24 H24            2.4065     0.7013     0.8729 H       
  25 H25            2.3895     0.7108    -0.9070 H       
  26 H26            3.4739     2.9899     0.8131 H       
  27 H27            5.4198     1.7948     0.9792 H       
  28 H28            4.6578     0.4236     0.1179 H       
  29 H29            6.7235     1.9686    -0.9573 H       
  30 H30            5.5162     1.0957    -1.9573 H       
  31 H31            5.4665     4.0232    -1.0356 H       
  32 H32            5.1852     3.3707    -2.6824 H       
  33 H33            3.0149     4.8710    -2.1248 H       
  34 H34            1.8743     4.1741    -0.9494 H       
  35 H35            3.3939     4.9101    -0.3861 H       
  36 H36           -5.4243     4.8355    -0.6837 H       
  37 H37           -6.9810     1.5740    -1.1721 H       
  38 H38           -7.8330     3.1367    -1.1552 H       
  39 H39           -6.3103     2.9630    -2.0604 H       
  40 H40           -6.2704     2.9385     2.2177 H       
  41 H41           -7.8097     3.1224     1.3431 H       
  42 H42           -6.9577     1.5597     1.3262 H       
@<TRIPOS>BOND
   1    1    2 ar
   2    1    7 1
   3    1    6 ar
   4    2    3 ar
   5    2   21 1
   6    3    4 ar
   7    4    5 ar
   8    4   22 1
   9    5    6 ar
  10    5   10 1
  11    6   23 1
  12    7    8 1
  13    8    9 1
  14    8   24 1
  15    8   25 1
  16    9   11 1
  17    9   14 1
  18    9   26 1
  19   10   16 3
  20   11   12 1
  21   11   27 1
  22   11   28 1
  23   12   13 1
  24   12   29 1
  25   12   30 1
  26   13   14 1
  27   13   31 1
  28   13   32 1
  29   14   15 1
  30   15   33 1
  31   15   34 1
  32   15   35 1
  33   16   17 1
  34   17   18 1
  35   17   19 1
  36   17   20 1
  37   18   36 1
  38   19   37 1
  39   19   38 1
  40   19   39 1
  41   20   40 1
  42   20   41 1
  43   20   42 1

#	End of record

