#	Name: ASD01914288
#	Creating user name:	WinNT
#	Creation time:	15. 06. 2019 20:03

#	Modifying user name:	WinNT
#	Modification time:	15. 06. 2019 20:03

#	Program:	/corina/corina34_cracker 3.40 0067  02.08.2006

@<TRIPOS>MOLECULE
ASD01914288
  31   33    0    0    0
SMALL
NO_CHARGES


@<TRIPOS>ATOM
   1 N1            -0.0169     1.3964     0.0097 N.2     
   2 N2             0.0021    -0.0041     0.0020 N.pl3   
   3 C3             1.2265     1.8295     0.0002 C.2     
   4 C4             2.0821     0.7154    -0.0140 C.2     
   5 C5             1.3055    -0.4064    -0.0126 C.2     
   6 C6             1.7888    -1.8044    -0.0243 C.ar    
   7 C7             1.6516     3.2517     0.0030 C.ar    
   8 C8             3.0062     3.5765    -0.0144 C.ar    
   9 C9             0.8699    -2.8536    -0.0270 C.ar    
  10 N10            3.0939    -2.0495    -0.0376 N.ar    
  11 C11            3.5654    -3.2793    -0.0488 C.ar    
  12 C12            2.7097    -4.3688    -0.0474 C.ar    
  13 C13            1.3362    -4.1560    -0.0384 C.ar    
  14 C14            0.6972     4.2665     0.0173 C.ar    
  15 C15            1.0978     5.5873     0.0199 C.ar    
  16 C16            2.4442     5.9042     0.0084 C.ar    
  17 C17            3.3959     4.9006    -0.0116 C.ar    
  18 F18            3.2053    -5.6255    -0.0598 F       
  19 C19            0.3766    -5.3180    -0.0362 C.3     
  20 H20           -0.7745    -0.5853     0.0063 H       
  21 H21            3.1617     0.7421    -0.0241 H       
  22 H22            3.7501     2.7937    -0.0296 H       
  23 H23           -0.1911    -2.6521    -0.0199 H       
  24 H24            4.6333    -3.4405    -0.0594 H       
  25 H25           -0.3543     4.0201     0.0260 H       
  26 H26            0.3588     6.3748     0.0306 H       
  27 H27            2.7534     6.9390     0.0105 H       
  28 H28            4.4458     5.1535    -0.0202 H       
  29 H29            0.1515    -5.6013     0.9919 H       
  30 H30           -0.5440    -5.0299    -0.5436 H       
  31 H31            0.8284    -6.1633    -0.5554 H       
@<TRIPOS>BOND
   1    1    2 1
   2    1    3 2
   3    2    5 1
   4    2   20 1
   5    3    4 1
   6    3    7 1
   7    4    5 2
   8    4   21 1
   9    5    6 1
  10    6   10 ar
  11    6    9 ar
  12    7   14 ar
  13    7    8 ar
  14    8   17 ar
  15    8   22 1
  16    9   13 ar
  17    9   23 1
  18   10   11 ar
  19   11   12 ar
  20   11   24 1
  21   12   13 ar
  22   12   18 1
  23   13   19 1
  24   14   15 ar
  25   14   25 1
  26   15   16 ar
  27   15   26 1
  28   16   17 ar
  29   16   27 1
  30   17   28 1
  31   19   29 1
  32   19   30 1
  33   19   31 1

#	End of record

