#	Name: ASD01148786
#	Creating user name:	WinNT
#	Creation time:	15. 06. 2019 19:03

#	Modifying user name:	WinNT
#	Modification time:	15. 06. 2019 19:03

#	Program:	/corina/corina34_cracker 3.40 0067  02.08.2006

@<TRIPOS>MOLECULE
ASD01148786
  58   61    0    0    0
SMALL
NO_CHARGES


@<TRIPOS>ATOM
   1 N1             0.0431     1.3924    -0.2297 N.pl3   
   2 C2            -0.0132     0.0403    -0.1832 C.2     
   3 C3             1.2289    -0.4501     0.1096 C.2     
   4 C4             2.1145     0.7181     0.2524 C.2     
   5 C5             1.3183     1.8269     0.0301 C.2     
   6 C6             1.6059    -1.8635     0.2540 C.2     
   7 O7             1.9867    -2.4929    -0.7138 O.2     
   8 O8             1.5293    -2.4618     1.4596 O.3     
   9 C9            -1.0452     2.2288    -0.5095 C.ar    
  10 C10           -2.0992     2.3233     0.3895 C.ar    
  11 C11           -3.1708     3.1488     0.1108 C.ar    
  12 C12           -3.1950     3.8805    -1.0624 C.ar    
  13 C13           -2.1471     3.7881    -1.9600 C.ar    
  14 C14           -1.0696     2.9695    -1.6838 C.ar    
  15 S15           -4.5642     4.9321    -1.4147 S.o2    
  16 O16           -4.5938     5.0931    -2.8262 O.2     
  17 O17           -5.6616     4.4261    -0.6670 O.2     
  18 N18           -4.2140     6.4215    -0.7813 N.am    
  19 C19           -1.2482    -0.7912    -0.4163 C.3     
  20 C20            3.5581     0.7077     0.5689 C.ar    
  21 C21            4.4701     0.1756    -0.3465 C.ar    
  22 C22            5.8044     0.1657    -0.0546 C.ar    
  23 C23            6.2579     0.6887     1.1606 C.ar    
  24 C24            5.3448     1.2215     2.0762 C.ar    
  25 C25            4.0113     1.2353     1.7811 C.ar    
  26 C26            7.6566     0.6781     1.4674 C.1     
  27 N27            8.7662     0.6698     1.7109 N.1     
  28 C28            1.7633     3.2339     0.0658 C.ar    
  29 C29            1.1040     4.1577     0.8800 C.ar    
  30 C30            1.5247     5.4707     0.9088 C.ar    
  31 C31            2.5982     5.8742     0.1323 C.ar    
  32 C32            3.2559     4.9633    -0.6775 C.ar    
  33 C33            2.8492     3.6459    -0.7102 C.ar    
  34 Cl34           3.1212     7.5290     0.1737 Cl      
  35 C35            1.9174    -3.8593     1.5278 C.3     
  36 C36            1.7653    -4.3613     2.9651 C.3     
  37 H37           -2.0812     1.7516     1.3056 H       
  38 H38           -3.9909     3.2228     0.8096 H       
  39 H39           -2.1690     4.3605    -2.8756 H       
  40 H40           -0.2490     2.9017    -2.3828 H       
  41 H41           -3.3730     6.5670    -0.3205 H       
  42 H42           -4.8499     7.1485    -0.8712 H       
  43 H43           -1.3273    -1.0353    -1.4756 H       
  44 H44           -1.1817    -1.7112     0.1646 H       
  45 H45           -2.1288    -0.2286    -0.1063 H       
  46 H46            4.1197    -0.2283    -1.2849 H       
  47 H47            6.5090    -0.2463    -0.7619 H       
  48 H48            5.6945     1.6255     3.0147 H       
  49 H49            3.3065     1.6502     2.4864 H       
  50 H50            0.2663     3.8444     1.4855 H       
  51 H51            1.0158     6.1860     1.5379 H       
  52 H52            4.0918     5.2844    -1.2812 H       
  53 H53            3.3660     2.9355    -1.3384 H       
  54 H54            1.2783    -4.4465     0.8683 H       
  55 H55            2.9562    -3.9637     1.2145 H       
  56 H56            2.0567    -5.4104     3.0163 H       
  57 H57            2.4044    -3.7742     3.6245 H       
  58 H58            0.7265    -4.2570     3.2783 H       
@<TRIPOS>BOND
   1    1    2 1
   2    1    5 1
   3    1    9 1
   4    2    3 2
   5    2   19 1
   6    3    4 1
   7    3    6 1
   8    4    5 2
   9    4   20 1
  10    5   28 1
  11    6    7 2
  12    6    8 1
  13    8   35 1
  14    9   10 ar
  15    9   14 ar
  16   10   11 ar
  17   10   37 1
  18   11   12 ar
  19   11   38 1
  20   12   13 ar
  21   12   15 1
  22   13   14 ar
  23   13   39 1
  24   14   40 1
  25   15   16 2
  26   15   17 2
  27   15   18 am
  28   18   41 1
  29   18   42 1
  30   19   43 1
  31   19   44 1
  32   19   45 1
  33   20   21 ar
  34   20   25 ar
  35   21   22 ar
  36   21   46 1
  37   22   23 ar
  38   22   47 1
  39   23   24 ar
  40   23   26 1
  41   24   25 ar
  42   24   48 1
  43   25   49 1
  44   26   27 3
  45   28   29 ar
  46   28   33 ar
  47   29   30 ar
  48   29   50 1
  49   30   31 ar
  50   30   51 1
  51   31   32 ar
  52   31   34 1
  53   32   33 ar
  54   32   52 1
  55   33   53 1
  56   35   36 1
  57   35   54 1
  58   35   55 1
  59   36   56 1
  60   36   57 1
  61   36   58 1

#	End of record

