#	Name: ASD02030086
#	Creating user name:	WinNT
#	Creation time:	15. 06. 2019 20:14

#	Modifying user name:	WinNT
#	Modification time:	15. 06. 2019 20:14

#	Program:	/corina/corina34_cracker 3.40 0067  02.08.2006

@<TRIPOS>MOLECULE
ASD02030086
  67   71    0    0    0
SMALL
NO_CHARGES


@<TRIPOS>ATOM
   1 C1            -0.5345     0.3531     1.2827 C.ar    
   2 C2             0.0538     0.0166     0.0716 C.ar    
   3 C3            -0.5658     0.3400    -1.1210 C.ar    
   4 C4            -1.7815     1.0034    -1.1174 C.ar    
   5 C5            -2.3851     1.3478     0.1026 C.ar    
   6 C6            -1.7530     1.0117     1.3061 C.ar    
   7 C7            -3.6774     2.0531     0.1165 C.2     
   8 C8            -3.7138     3.5289     0.2205 C.ar    
   9 C9            -4.9317     4.2055     0.1286 C.ar    
  10 C10           -4.9653     5.5796     0.2255 C.ar    
  11 C11           -2.5310     4.2445     0.4163 C.ar    
  12 O12           -4.7147     1.4231     0.0425 O.2     
  13 F13           -2.3245     1.3380     2.4859 F       
  14 O14           -2.3875     1.3201    -2.2897 O.3     
  15 C15           -2.5651     5.6185     0.5131 C.ar    
  16 C16           -3.7820     6.2952     0.4150 C.ar    
  17 C17           -3.8184     7.7712     0.5190 C.2     
  18 N18           -2.7234     8.4955     0.2144 N.am    
  19 O19           -4.8358     8.3301     0.8791 O.2     
  20 C20           -2.5818     9.9486     0.3870 C.3     
  21 C21           -2.7203    10.3076     1.8441 C.2     
  22 N22           -2.6239    11.5943     2.2333 N.am    
  23 C23           -1.7148     0.9387    -3.4914 C.3     
  24 O24           -1.8555    -0.4694    -3.6898 O.3     
  25 C25           -3.1519    -0.8661    -4.1412 C.3     
  26 C26           -1.1755    10.3352    -0.1174 C.3     
  27 C27           -0.8141     9.1648    -1.0697 C.3     
  28 C28           -1.4668     7.9608    -0.3411 C.3     
  29 O29           -2.9184     9.4384     2.6666 O.2     
  30 C30           -2.6534    11.9181     3.5963 C.ar    
  31 C31           -1.8821    12.9774     4.0748 C.ar    
  32 C32           -1.8966    13.3091     5.3989 C.ar    
  33 C33           -2.6869    12.5883     6.2906 C.ar    
  34 C34           -3.4695    11.5171     5.8183 C.ar    
  35 C35           -3.4501    11.1908     4.4579 C.ar    
  36 N36           -2.9105    12.6742     7.6416 N.pl3   
  37 C37           -4.1694    10.9768     6.9795 C.2     
  38 N38           -3.8166    11.6778     8.0189 N.2     
  39 O39            0.0846     0.0302     2.4503 O.3     
  40 C40            1.3356    -0.6537     2.3539 C.3     
  41 H41            1.0017    -0.5007     0.0608 H       
  42 H42           -0.1002     0.0748    -2.0586 H       
  43 H43           -5.8473     3.6520    -0.0188 H       
  44 H44           -5.9074     6.1030     0.1544 H       
  45 H45           -1.5894     3.7210     0.4923 H       
  46 H46           -1.6503     6.1720     0.6649 H       
  47 H47           -3.3428    10.4671    -0.1962 H       
  48 H48           -2.5341    12.2962     1.5699 H       
  49 H49           -2.1518     1.4702    -4.3368 H       
  50 H50           -0.6573     1.1905    -3.4114 H       
  51 H51           -3.3680    -0.3839    -5.0945 H       
  52 H52           -3.1772    -1.9485    -4.2676 H       
  53 H53           -3.8995    -0.5686    -3.4058 H       
  54 H54           -1.2068    11.2793    -0.6612 H       
  55 H55           -0.4699    10.3896     0.7117 H       
  56 H56           -1.2535     9.3138    -2.0561 H       
  57 H57            0.2662     9.0377    -1.1401 H       
  58 H58           -0.8160     7.6016     0.4561 H       
  59 H59           -1.6795     7.1593    -1.0485 H       
  60 H60           -1.2661    13.5412     3.3899 H       
  61 H61           -1.2940    14.1314     5.7555 H       
  62 H62           -4.0469    10.3709     4.0863 H       
  63 H63           -2.5049    13.3217     8.2392 H       
  64 H64           -4.8575    10.1444     6.9771 H       
  65 H65            1.1942    -1.5972     1.8267 H       
  66 H66            2.0467    -0.0348     1.8068 H       
  67 H67            1.7201    -0.8507     3.3546 H       
@<TRIPOS>BOND
   1    1    2 ar
   2    1   39 1
   3    1    6 ar
   4    2    3 ar
   5    2   41 1
   6    3    4 ar
   7    3   42 1
   8    4    5 ar
   9    4   14 1
  10    5    6 ar
  11    5    7 1
  12    6   13 1
  13    7    8 1
  14    7   12 2
  15    8    9 ar
  16    8   11 ar
  17    9   10 ar
  18    9   43 1
  19   10   16 ar
  20   10   44 1
  21   11   15 ar
  22   11   45 1
  23   14   23 1
  24   15   16 ar
  25   15   46 1
  26   16   17 1
  27   17   18 am
  28   17   19 2
  29   18   20 1
  30   18   28 1
  31   20   21 1
  32   20   26 1
  33   20   47 1
  34   21   22 am
  35   21   29 2
  36   22   30 1
  37   22   48 1
  38   23   24 1
  39   23   49 1
  40   23   50 1
  41   24   25 1
  42   25   51 1
  43   25   52 1
  44   25   53 1
  45   26   27 1
  46   26   54 1
  47   26   55 1
  48   27   28 1
  49   27   56 1
  50   27   57 1
  51   28   58 1
  52   28   59 1
  53   30   31 ar
  54   30   35 ar
  55   31   32 ar
  56   31   60 1
  57   32   33 ar
  58   32   61 1
  59   33   34 ar
  60   33   36 1
  61   34   35 ar
  62   34   37 1
  63   35   62 1
  64   36   38 1
  65   36   63 1
  66   37   38 2
  67   37   64 1
  68   39   40 1
  69   40   65 1
  70   40   66 1
  71   40   67 1

#	End of record

