#	Name: ASD01813565
#	Creating user name:	WinNT
#	Creation time:	15. 06. 2019 19:30

#	Modifying user name:	WinNT
#	Modification time:	15. 06. 2019 19:30

#	Program:	/corina/corina34_cracker 3.40 0067  02.08.2006

@<TRIPOS>MOLECULE
ASD01813565
  52   56    0    0    0
SMALL
NO_CHARGES


@<TRIPOS>ATOM
   1 C1             6.8937     1.6492    -0.3534 C.ar    
   2 C2             6.9785     0.2654    -0.3687 C.ar    
   3 C3             5.8436    -0.5121    -0.2589 C.ar    
   4 C4             4.5945     0.0925    -0.1306 C.ar    
   5 C5             4.5102     1.4952    -0.1147 C.ar    
   6 C6             5.6673     2.2701    -0.2272 C.ar    
   7 N7             3.4532    -0.6739    -0.0212 N.pl3   
   8 C8             2.2311    -0.1413     0.1032 C.2     
   9 C9             2.0228     1.2229     0.1307 C.2     
  10 C10            3.1834     2.1219     0.0216 C.2     
  11 O11            3.0524     3.3333     0.0412 O.2     
  12 C12            0.6653     1.7688     0.2675 C.2     
  13 O13            0.4747     3.1031     0.2931 O.3     
  14 O14           -0.2859     1.0171     0.3576 O.2     
  15 C15            3.5836    -2.1330    -0.0424 C.3     
  16 C16            3.4402    -2.6296    -1.4580 C.ar    
  17 N17            2.2367    -2.8269    -1.9599 N.ar    
  18 C18            2.0634    -3.2617    -3.1980 C.ar    
  19 C19            3.1561    -3.5265    -4.0146 C.ar    
  20 C20            4.4325    -3.3291    -3.5164 C.ar    
  21 C21            4.5711    -2.8669    -2.2152 C.ar    
  22 F22            5.9435    -1.8593    -0.2764 F       
  23 F23            5.5865     3.6186    -0.2116 F       
  24 N24            0.7706    -3.4564    -3.6880 N.pl3   
  25 C25            0.4722    -3.8019    -4.9639 C.2     
  26 C26           -0.8944    -3.9106    -5.1037 C.2     
  27 C27           -1.4723    -3.5996    -3.7809 C.ar    
  28 C28           -0.3840    -3.3296    -2.9375 C.ar    
  29 C29           -2.7718    -3.5407    -3.2856 C.ar    
  30 C30           -2.9843    -3.2108    -1.9645 C.ar    
  31 C31           -1.9100    -2.9378    -1.1305 C.ar    
  32 C32           -0.6184    -2.9997    -1.6068 C.ar    
  33 C33           -1.6038    -4.2527    -6.2822 C.2     
  34 C34           -0.8529    -4.5424    -7.5563 C.3     
  35 O35           -2.8162    -4.3122    -6.2651 O.2     
  36 H36            7.7915     2.2438    -0.4361 H       
  37 H37            7.9434    -0.2094    -0.4679 H       
  38 H38            1.3799    -0.8011     0.1843 H       
  39 H39           -0.4361     3.4148     0.3847 H       
  40 H40            4.5625    -2.4160     0.3445 H       
  41 H41            2.8053    -2.5764     0.5788 H       
  42 H42            3.0115    -3.8818    -5.0241 H       
  43 H43            5.3006    -3.5268    -4.1276 H       
  44 H44            5.5528    -2.7024    -1.7962 H       
  45 H45            1.1942    -3.9660    -5.7501 H       
  46 H46           -3.6096    -3.7522    -3.9335 H       
  47 H47           -3.9913    -3.1642    -1.5771 H       
  48 H48           -2.0873    -2.6799    -0.0969 H       
  49 H49            0.2110    -2.7857    -0.9489 H       
  50 H50           -0.1818    -5.3867    -7.3985 H       
  51 H51           -1.5614    -4.7846    -8.3484 H       
  52 H52           -0.2726    -3.6656    -7.8434 H       
@<TRIPOS>BOND
   1    1    2 ar
   2    1    6 ar
   3    1   36 1
   4    2    3 ar
   5    2   37 1
   6    3    4 ar
   7    3   22 1
   8    4    5 ar
   9    4    7 1
  10    5    6 ar
  11    5   10 1
  12    6   23 1
  13    7    8 1
  14    7   15 1
  15    8    9 2
  16    8   38 1
  17    9   10 1
  18    9   12 1
  19   10   11 2
  20   12   13 1
  21   12   14 2
  22   13   39 1
  23   15   16 1
  24   15   40 1
  25   15   41 1
  26   16   17 ar
  27   16   21 ar
  28   17   18 ar
  29   18   19 ar
  30   18   24 1
  31   19   20 ar
  32   19   42 1
  33   20   21 ar
  34   20   43 1
  35   21   44 1
  36   24   25 1
  37   24   28 1
  38   25   26 2
  39   25   45 1
  40   26   27 1
  41   26   33 1
  42   27   28 ar
  43   27   29 ar
  44   28   32 ar
  45   29   30 ar
  46   29   46 1
  47   30   31 ar
  48   30   47 1
  49   31   32 ar
  50   31   48 1
  51   32   49 1
  52   33   34 1
  53   33   35 2
  54   34   50 1
  55   34   51 1
  56   34   52 1

#	End of record

