#	Name: ASD06620026
#	Creating user name:	WinNT
#	Creation time:	15. 06. 2019 21:07

#	Modifying user name:	WinNT
#	Modification time:	15. 06. 2019 21:07

#	Program:	/corina/corina34_cracker 3.40 0067  02.08.2006

@<TRIPOS>MOLECULE
ASD06620026
  47   51    0    0    0
SMALL
NO_CHARGES


@<TRIPOS>ATOM
   1 C1            -0.0167     1.3797     0.0096 C.ar    
   2 C2             0.0021    -0.0041     0.0020 C.ar    
   3 C3             1.2349    -0.6673    -0.0134 C.ar    
   4 C4             2.3975     0.0930    -0.0204 C.ar    
   5 C5             2.2923     1.4695    -0.0120 C.ar    
   6 N6             1.1127     2.0628     0.0025 N.ar    
   7 C7            -0.3747    -2.1918    -0.0061 C.2     
   8 N8            -0.9810    -0.9888     0.0062 N.am    
   9 N9             0.9622    -2.0260    -0.0180 N.am    
  10 O10           -0.9476    -3.2652    -0.0058 O.2     
  11 C11           -2.4275    -0.7571     0.0217 C.3     
  12 C12           -3.7448    -1.2483    -3.3259 C.2     
  13 C13           -4.2673    -1.9123    -4.4520 C.2     
  14 C14           -4.5613    -1.1959    -5.5733 C.2     
  15 C15           -4.3397     0.1915    -5.5903 C.2     
  16 C16           -3.8376     0.8126    -4.5018 C.2     
  17 N17           -3.5401     0.1059    -3.3742 N.pl3   
  18 N18           -3.3719    -1.6885    -2.1293 N.2     
  19 C19           -2.9375    -0.6697    -1.3937 C.2     
  20 C20           -3.0291     0.4796    -2.1495 C.2     
  21 C21           -2.6618     1.8027    -1.7430 C.1     
  22 C22           -2.3608     2.8874    -1.4098 C.1     
  23 C23           -1.9833     4.2474    -0.9920 C.3     
  24 C24            1.9586    -3.0999    -0.0341 C.3     
  25 C25            1.9537    -4.0857     1.1359 C.3     
  26 C26            1.4535    -4.5293    -0.2403 C.3     
  27 Cl27          -5.2060    -1.9936    -6.9740 Cl      
  28 O28           -1.4958     4.2151     0.3509 O.3     
  29 C29           -1.0999     5.4918     0.8564 C.3     
  30 H30           -0.9610     1.9037     0.0169 H       
  31 H31            3.3663    -0.3842    -0.0319 H       
  32 H32            3.1894     2.0709    -0.0170 H       
  33 H33           -2.9220    -1.5813     0.5358 H       
  34 H34           -2.6404     0.1762     0.5429 H       
  35 H35           -4.4331    -2.9792    -4.4276 H       
  36 H36           -4.5715     0.7628    -6.4770 H       
  37 H37           -3.6703     1.8793    -4.5242 H       
  38 H38           -1.2037     4.6272    -1.6525 H       
  39 H39           -2.8551     4.8994    -1.0465 H       
  40 H40            2.9237    -2.8392    -0.4685 H       
  41 H41            2.9155    -4.4740     1.4710 H       
  42 H42            1.2091    -3.9353     1.9176 H       
  43 H43            0.3798    -4.6707    -0.3640 H       
  44 H44            2.0862    -5.2093    -0.8106 H       
  45 H45           -0.3020     5.8974     0.2342 H       
  46 H46           -1.9534     6.1695     0.8402 H       
  47 H47           -0.7422     5.3822     1.8802 H       
@<TRIPOS>BOND
   1    1    2 ar
   2    1    6 ar
   3    1   30 1
   4    2    3 ar
   5    2    8 1
   6    3    4 ar
   7    3    9 1
   8    4    5 ar
   9    4   31 1
  10    5    6 ar
  11    5   32 1
  12    7    8 am
  13    7    9 am
  14    7   10 2
  15    8   11 1
  16    9   24 1
  17   11   19 1
  18   11   33 1
  19   11   34 1
  20   12   13 1
  21   12   17 1
  22   12   18 2
  23   13   14 2
  24   13   35 1
  25   14   15 1
  26   14   27 1
  27   15   16 2
  28   15   36 1
  29   16   17 1
  30   16   37 1
  31   17   20 1
  32   18   19 1
  33   19   20 2
  34   20   21 1
  35   21   22 3
  36   22   23 1
  37   23   28 1
  38   23   38 1
  39   23   39 1
  40   24   25 1
  41   24   26 1
  42   24   40 1
  43   25   26 1
  44   25   41 1
  45   25   42 1
  46   26   43 1
  47   26   44 1
  48   28   29 1
  49   29   45 1
  50   29   46 1
  51   29   47 1

#	End of record

