#	Name: ASD01811186
#	Creating user name:	WinNT
#	Creation time:	15. 06. 2019 19:26

#	Modifying user name:	WinNT
#	Modification time:	15. 06. 2019 19:26

#	Program:	/corina/corina34_cracker 3.40 0067  02.08.2006

@<TRIPOS>MOLECULE
ASD01811186
  63   68    0    0    0
SMALL
NO_CHARGES


@<TRIPOS>ATOM
   1 C1             0.8235    -0.5422     1.1776 C.3     
   2 C2             0.0021    -0.0041     0.0020 C.3     
   3 C3             0.6408    -0.4718    -1.3093 C.3     
   4 C4             2.0971    -0.0017    -1.3547 C.3     
   5 O5             2.7965    -0.5117    -0.2176 O.3     
   6 C6             2.2727    -0.0694     1.0362 C.3     
   7 N7            -1.3726    -0.5147     0.0885 N.3     
   8 C8            -2.2174     0.0517    -0.9867 C.3     
   9 C9            -3.6341     0.2286    -0.4022 C.3     
  10 C10           -3.5142    -0.2199     1.0598 C.3     
  11 C11           -2.0123    -0.1092     1.3689 C.3     
  12 C12           -4.3362     0.6345     1.9787 C.ar    
  13 C13           -5.2124    -0.2372     2.6210 C.ar    
  14 N14           -5.0020    -1.5458     2.1798 N.am    
  15 C15           -4.0198    -1.6198     1.2596 C.2     
  16 C16           -4.3607     1.9827     2.2559 C.ar    
  17 C17           -5.2610     2.4843     3.1795 C.ar    
  18 C18           -6.1356     1.6283     3.8228 C.ar    
  19 C19           -6.1149     0.2762     3.5487 C.ar    
  20 O20           -3.6220    -2.6210     0.7024 O.2     
  21 C21           -5.7607    -2.7029     2.6608 C.3     
  22 C22           -6.9746    -2.9047     1.7908 C.ar    
  23 C23           -6.8482    -3.5393     0.5656 C.ar    
  24 C24           -7.9592    -3.7258    -0.2355 C.ar    
  25 C25           -9.2058    -3.2748     0.1918 C.ar    
  26 C26           -9.3260    -2.6380     1.4248 C.ar    
  27 C27           -8.2116    -2.4610     2.2202 C.ar    
  28 F28           -5.6380    -3.9758     0.1533 F       
  29 C29          -10.4027    -3.4718    -0.6645 C.2     
  30 C30          -11.6769    -3.0822    -0.3710 C.2     
  31 N31          -12.4627    -3.4451    -1.4048 N.pl3   
  32 N32          -11.6606    -4.0751    -2.3640 N.2     
  33 C33          -10.4281    -4.0895    -1.9300 C.2     
  34 C34          -13.9067    -3.2197    -1.5065 C.3     
  35 H35            0.4081    -0.1685     2.1135 H       
  36 H36            0.7938    -1.6317     1.1742 H       
  37 H37           -0.0096     1.0854     0.0337 H       
  38 H38            0.6075    -1.5599    -1.3630 H       
  39 H39            0.0948    -0.0477    -2.1520 H       
  40 H40            2.5691    -0.3682    -2.2662 H       
  41 H41            2.1279     1.0878    -1.3418 H       
  42 H42            2.3059     1.0192     1.0804 H       
  43 H43            2.8713    -0.4846     1.8471 H       
  44 H44           -1.8216     1.0177    -1.3002 H       
  45 H45           -2.2482    -0.6330    -1.8343 H       
  46 H46           -3.9382     1.2740    -0.4546 H       
  47 H47           -4.3459    -0.4017    -0.9352 H       
  48 H48           -1.7332    -0.7915     2.1717 H       
  49 H49           -1.7464     0.9166     1.6241 H       
  50 H50           -3.6764     2.6495     1.7524 H       
  51 H51           -5.2806     3.5420     3.3970 H       
  52 H52           -6.8381     2.0197     4.5437 H       
  53 H53           -6.8011    -0.3862     4.0554 H       
  54 H54           -5.1321    -3.5924     2.6193 H       
  55 H55           -6.0760    -2.5285     3.6896 H       
  56 H56           -7.8608    -4.2198    -1.1909 H       
  57 H57          -10.2907    -2.2865     1.7598 H       
  58 H58           -8.3049    -1.9675     3.1763 H       
  59 H59          -11.9980    -2.5751     0.5269 H       
  60 H60           -9.5781    -4.5078    -2.4486 H       
  61 H61          -14.0914    -2.2565    -1.9821 H       
  62 H62          -14.3569    -4.0123    -2.1041 H       
  63 H63          -14.3460    -3.2226    -0.5090 H       
@<TRIPOS>BOND
   1    1    2 1
   2    1    6 1
   3    1   35 1
   4    1   36 1
   5    2    3 1
   6    2    7 1
   7    2   37 1
   8    3    4 1
   9    3   38 1
  10    3   39 1
  11    4    5 1
  12    4   40 1
  13    4   41 1
  14    5    6 1
  15    6   42 1
  16    6   43 1
  17    7    8 1
  18    7   11 1
  19    8    9 1
  20    8   44 1
  21    8   45 1
  22    9   10 1
  23    9   46 1
  24    9   47 1
  25   10   11 1
  26   10   12 1
  27   10   15 1
  28   11   48 1
  29   11   49 1
  30   12   13 ar
  31   12   16 ar
  32   13   14 1
  33   13   19 ar
  34   14   15 am
  35   14   21 1
  36   15   20 2
  37   16   17 ar
  38   16   50 1
  39   17   18 ar
  40   17   51 1
  41   18   19 ar
  42   18   52 1
  43   19   53 1
  44   21   22 1
  45   21   54 1
  46   21   55 1
  47   22   23 ar
  48   22   27 ar
  49   23   24 ar
  50   23   28 1
  51   24   25 ar
  52   24   56 1
  53   25   26 ar
  54   25   29 1
  55   26   27 ar
  56   26   57 1
  57   27   58 1
  58   29   30 2
  59   29   33 1
  60   30   31 1
  61   30   59 1
  62   31   32 1
  63   31   34 1
  64   32   33 2
  65   33   60 1
  66   34   61 1
  67   34   62 1
  68   34   63 1

#	End of record

