#	Name: ASD02500129
#	Creating user name:	WinNT
#	Creation time:	15. 06. 2019 20:22

#	Modifying user name:	WinNT
#	Modification time:	15. 06. 2019 20:22

#	Program:	/corina/corina34_cracker 3.40 0067  02.08.2006

@<TRIPOS>MOLECULE
ASD02500129
  60   64    0    0    0
SMALL
NO_CHARGES


@<TRIPOS>ATOM
   1 N1            -3.4275     5.4998     0.3201 N.ar    
   2 C2            -4.5601     6.1367     0.1472 C.ar    
   3 C3            -5.6738     5.8817     0.9447 C.ar    
   4 C4            -5.6017     4.9464     1.9374 C.ar    
   5 C5            -4.3839     4.2641     2.1198 C.ar    
   6 C6            -4.2342     3.2901     3.1196 C.ar    
   7 C7            -3.0397     2.6525     3.2645 C.ar    
   8 C8            -1.9629     2.9542     2.4335 C.ar    
   9 C9            -2.0731     3.8929     1.4541 C.ar    
  10 C10           -3.2900     4.5727     1.2734 C.ar    
  11 S11           -0.6951     4.2554     0.4176 S.o2    
  12 O12           -0.5749     5.6710     0.3903 O.2     
  13 O13            0.3563     3.3939     0.8320 O.2     
  14 N14           -1.1020     3.7909    -1.1190 N.am    
  15 C15           -1.3299     2.4488    -1.4023 C.ar    
  16 C16           -2.4325     2.0778    -2.1670 C.ar    
  17 C17           -2.6608     0.7504    -2.4490 C.ar    
  18 C18           -1.7841    -0.2259    -1.9668 C.ar    
  19 C19           -0.6778     0.1499    -1.1992 C.ar    
  20 C20           -0.4519     1.4794    -0.9253 C.ar    
  21 C21           -2.0261    -1.6498    -2.2669 C.2     
  22 O22           -1.0972    -2.3739    -2.5694 O.2     
  23 N23           -3.2769    -2.1482    -2.2059 N.am    
  24 C24           -3.5217    -3.5822    -2.4152 C.3     
  25 C25           -4.2804    -4.1322    -1.2011 C.3     
  26 N26           -5.4238    -3.2515    -0.9235 N.am    
  27 C27           -5.1790    -1.8176    -0.7142 C.3     
  28 C28           -4.4196    -1.2686    -1.9227 C.3     
  29 C29           -6.6745    -3.7500    -0.8625 C.2     
  30 C30           -7.8008    -2.8739    -0.4810 C.ar    
  31 C31           -8.9346    -2.7931    -1.2950 C.ar    
  32 C32           -9.9860    -1.9689    -0.9295 C.ar    
  33 C33           -9.9132    -1.2280     0.2375 C.ar    
  34 C34           -8.7922    -1.3056     1.0455 C.ar    
  35 C35           -7.7406    -2.1268     0.6972 C.ar    
  36 O36           -6.8757    -4.9206    -1.1213 O.2     
  37 F37          -11.0836    -1.8877    -1.7130 F       
  38 F38           -9.0043    -3.5160    -2.4342 F       
  39 H39           -4.6318     6.8790    -0.6339 H       
  40 H40           -6.5932     6.4234     0.7783 H       
  41 H41           -6.4550     4.7363     2.5651 H       
  42 H42           -5.0614     3.0481     3.7704 H       
  43 H43           -2.9254     1.9033     4.0339 H       
  44 H44           -1.0256     2.4351     2.5689 H       
  45 H45           -1.1814     4.4551    -1.8214 H       
  46 H46           -3.1096     2.8325    -2.5390 H       
  47 H47           -3.5165     0.4631    -3.0420 H       
  48 H48            0.0010    -0.6021    -0.8249 H       
  49 H49            0.4052     1.7708    -0.3364 H       
  50 H50           -4.1200    -3.7235    -3.3153 H       
  51 H51           -2.5706    -4.1043    -2.5195 H       
  52 H52           -4.6381    -5.1386    -1.4185 H       
  53 H53           -3.6181    -4.1556    -0.3357 H       
  54 H54           -6.1301    -1.2955    -0.6099 H       
  55 H55           -4.5807    -1.6763     0.1859 H       
  56 H56           -4.0613    -0.2631    -1.7018 H       
  57 H57           -5.0833    -1.2414    -2.7869 H       
  58 H58          -10.7348    -0.5859     0.5186 H       
  59 H59           -8.7426    -0.7242     1.9543 H       
  60 H60           -6.8695    -2.1886     1.3326 H       
@<TRIPOS>BOND
   1    1    2 ar
   2    1   10 ar
   3    2    3 ar
   4    2   39 1
   5    3    4 ar
   6    3   40 1
   7    4    5 ar
   8    4   41 1
   9    5    6 ar
  10    5   10 ar
  11    6    7 ar
  12    6   42 1
  13    7    8 ar
  14    7   43 1
  15    8    9 ar
  16    8   44 1
  17    9   10 ar
  18    9   11 1
  19   11   12 2
  20   11   13 2
  21   11   14 am
  22   14   15 1
  23   14   45 1
  24   15   16 ar
  25   15   20 ar
  26   16   17 ar
  27   16   46 1
  28   17   18 ar
  29   17   47 1
  30   18   19 ar
  31   18   21 1
  32   19   20 ar
  33   19   48 1
  34   20   49 1
  35   21   22 2
  36   21   23 am
  37   23   24 1
  38   23   28 1
  39   24   25 1
  40   24   50 1
  41   24   51 1
  42   25   26 1
  43   25   52 1
  44   25   53 1
  45   26   27 1
  46   26   29 am
  47   27   28 1
  48   27   54 1
  49   27   55 1
  50   28   56 1
  51   28   57 1
  52   29   30 1
  53   29   36 2
  54   30   31 ar
  55   30   35 ar
  56   31   32 ar
  57   31   38 1
  58   32   33 ar
  59   32   37 1
  60   33   34 ar
  61   33   58 1
  62   34   35 ar
  63   34   59 1
  64   35   60 1

#	End of record

