#	Name: ASD01917262
#	Creating user name:	WinNT
#	Creation time:	15. 06. 2019 20:08

#	Modifying user name:	WinNT
#	Modification time:	15. 06. 2019 20:08

#	Program:	/corina/corina34_cracker 3.40 0067  02.08.2006

@<TRIPOS>MOLECULE
ASD01917262
  48   51    0    0    0
SMALL
NO_CHARGES


@<TRIPOS>ATOM
   1 C1            -0.0188     1.5345     0.0105 C.3     
   2 C2             0.0021    -0.0041     0.0020 C.3     
   3 C3             1.0346    -0.4943     1.0190 C.3     
   4 C4             0.7319     0.0808     2.4040 C.3     
   5 C5             0.6797     1.6157     2.3091 C.3     
   6 C6             1.8973     2.0694     1.4711 C.3     
   7 C7             1.4500     2.0174    -0.0010 C.3     
   8 C8            -0.5348     1.9653     1.4089 C.3     
   9 C9            -2.9052     2.3459    -2.3307 C.ar    
  10 C10           -4.2550     2.0225    -2.4500 C.ar    
  11 C11           -4.9865     2.5618    -3.4963 C.ar    
  12 C12           -4.3423     3.4062    -4.3872 C.ar    
  13 C13           -2.9969     3.6843    -4.2076 C.ar    
  14 N14           -2.3263     3.1587    -3.2057 N.ar    
  15 C15           -2.1107     1.7825    -1.2142 C.2     
  16 O16           -2.6368     1.0417    -0.4073 O.2     
  17 N17           -0.8044     2.0916    -1.0935 N.am    
  18 C18            1.5715     2.7042     5.8433 C.ar    
  19 C19            2.6010     2.4892     6.7568 C.ar    
  20 C20            2.5423     3.1086     7.9953 C.ar    
  21 C21            1.4555     3.9217     8.2770 C.ar    
  22 C22            0.4674     4.0905     7.3204 C.ar    
  23 N23            0.5481     3.4906     6.1528 N.ar    
  24 C24            1.6224     2.0542     4.5127 C.2     
  25 O25            2.5594     1.3372     4.2223 O.2     
  26 N26            0.6294     2.2583     3.6246 N.am    
  27 H27           -0.9836    -0.3836     0.2712 H       
  28 H28            0.2722    -0.3597    -0.9923 H       
  29 H29            1.0056    -1.5829     1.0662 H       
  30 H30            2.0288    -0.1759     0.7056 H       
  31 H31           -0.2295    -0.2959     2.7531 H       
  32 H32            1.5160    -0.2150     3.1010 H       
  33 H33            2.1797     3.0869     1.7411 H       
  34 H34            2.7360     1.3921     1.6319 H       
  35 H35            2.0710     1.3148    -0.5566 H       
  36 H36            1.5146     3.0097    -0.4474 H       
  37 H37           -0.7460     3.0343     1.4353 H       
  38 H38           -1.4134     1.3877     1.6963 H       
  39 H39           -4.7246     1.3606    -1.7374 H       
  40 H40           -6.0345     2.3293    -3.6150 H       
  41 H41           -4.8838     3.8427    -5.2135 H       
  42 H42           -2.4919     4.3417    -4.8999 H       
  43 H43           -0.3844     2.6829    -1.7375 H       
  44 H44            3.4329     1.8487     6.5037 H       
  45 H45            3.3252     2.9608     8.7243 H       
  46 H46            1.3795     4.4186     9.2329 H       
  47 H47           -0.3807     4.7233     7.5366 H       
  48 H48           -0.1186     2.8307     3.8565 H       
@<TRIPOS>BOND
   1    1    2 1
   2    1    7 1
   3    1    8 1
   4    1   17 1
   5    2    3 1
   6    2   27 1
   7    2   28 1
   8    3    4 1
   9    3   29 1
  10    3   30 1
  11    4    5 1
  12    4   31 1
  13    4   32 1
  14    5    6 1
  15    5    8 1
  16    5   26 1
  17    6    7 1
  18    6   33 1
  19    6   34 1
  20    7   35 1
  21    7   36 1
  22    8   37 1
  23    8   38 1
  24    9   10 ar
  25    9   14 ar
  26    9   15 1
  27   10   11 ar
  28   10   39 1
  29   11   12 ar
  30   11   40 1
  31   12   13 ar
  32   12   41 1
  33   13   14 ar
  34   13   42 1
  35   15   16 2
  36   15   17 am
  37   17   43 1
  38   18   19 ar
  39   18   23 ar
  40   18   24 1
  41   19   20 ar
  42   19   44 1
  43   20   21 ar
  44   20   45 1
  45   21   22 ar
  46   21   46 1
  47   22   23 ar
  48   22   47 1
  49   24   25 2
  50   24   26 am
  51   26   48 1

#	End of record

