#	Name: ASD00311523
#	Creating user name:	WinNT
#	Creation time:	15. 06. 2019 18:35

#	Modifying user name:	WinNT
#	Modification time:	15. 06. 2019 18:35

#	Program:	/corina/corina34_cracker 3.40 0067  02.08.2006

@<TRIPOS>MOLECULE
ASD00311523
  47   51    0    0    0
SMALL
NO_CHARGES


@<TRIPOS>ATOM
   1 C1            -0.0166     1.3749     0.0096 C.2     
   2 C2             0.0021    -0.0041     0.0020 C.2     
   3 C3             1.2571    -0.6782    -0.0133 C.2     
   4 C4             2.4318     0.0636    -0.0203 C.2     
   5 C5             2.3580     1.4715    -0.0120 C.2     
   6 N6             1.1655     2.0858     0.0021 N.am    
   7 C7            -1.3450    -0.5814     0.0123 C.2     
   8 C8            -2.3366     0.3436     0.0271 C.2     
   9 S9            -1.6747     1.9658     0.0358 S.3     
  10 O10            3.3827     2.1338    -0.0180 O.2     
  11 C11            3.7471    -0.6170    -0.0357 C.ar    
  12 C12            4.5933    -0.4806    -1.1360 C.ar    
  13 C13            5.8176    -1.1168    -1.1443 C.ar    
  14 C14            6.2063    -1.8892    -0.0643 C.ar    
  15 C15            5.3712    -2.0288     1.0298 C.ar    
  16 C16            4.1470    -1.3925     1.0526 C.ar    
  17 C17           -2.3412    -4.6400    -0.3053 C.2     
  18 C18           -2.8115    -3.9064     0.8792 C.2     
  19 C19           -2.0393    -2.6644     1.2743 C.3     
  20 C20           -1.5887    -1.9771     0.0068 C.2     
  21 C21           -1.4158    -2.6874    -1.1390 C.2     
  22 N22           -1.7062    -3.9717    -1.2525 N.2     
  23 C23           -2.5685    -6.0954    -0.4313 C.ar    
  24 C24           -2.1157    -6.7834    -1.5647 C.ar    
  25 C25           -2.3337    -8.1468    -1.6732 C.ar    
  26 C26           -2.9955    -8.8252    -0.6666 C.ar    
  27 C27           -3.4448    -8.1490     0.4545 C.ar    
  28 C28           -3.2302    -6.7921     0.5807 C.ar    
  29 O29           -1.4660    -6.1160    -2.5532 O.3     
  30 O30           -3.7774    -4.2799     1.5130 O.2     
  31 O31            1.3047    -2.0309    -0.0206 O.3     
  32 H32            1.1336     3.0552     0.0076 H       
  33 H33           -3.3914     0.1116     0.0360 H       
  34 H34            4.2907     0.1215    -1.9800 H       
  35 H35            6.4737    -1.0119    -1.9957 H       
  36 H36            7.1654    -2.3855    -0.0755 H       
  37 H37            5.6799    -2.6333     1.8698 H       
  38 H38            3.4978    -1.4985     1.9091 H       
  39 H39           -2.6825    -1.9967     1.8475 H       
  40 H40           -1.1711    -2.9439     1.8712 H       
  41 H41           -1.0201    -2.1746    -2.0032 H       
  42 H42           -1.9865    -8.6807    -2.5454 H       
  43 H43           -3.1631    -9.8883    -0.7556 H       
  44 H44           -3.9615    -8.6867     1.2357 H       
  45 H45           -3.5780    -6.2689     1.4591 H       
  46 H46           -0.5068    -6.0777    -2.4373 H       
  47 H47            2.2013    -2.3929    -0.0309 H       
@<TRIPOS>BOND
   1    1    2 2
   2    1    6 1
   3    1    9 1
   4    2    3 1
   5    2    7 1
   6    3    4 2
   7    3   31 1
   8    4    5 1
   9    4   11 1
  10    5    6 am
  11    5   10 2
  12    6   32 1
  13    7    8 2
  14    7   20 1
  15    8    9 1
  16    8   33 1
  17   11   12 ar
  18   11   16 ar
  19   12   13 ar
  20   12   34 1
  21   13   14 ar
  22   13   35 1
  23   14   15 ar
  24   14   36 1
  25   15   16 ar
  26   15   37 1
  27   16   38 1
  28   17   18 1
  29   17   22 2
  30   17   23 1
  31   18   19 1
  32   18   30 2
  33   19   20 1
  34   19   39 1
  35   19   40 1
  36   20   21 2
  37   21   22 1
  38   21   41 1
  39   23   24 ar
  40   23   28 ar
  41   24   25 ar
  42   24   29 1
  43   25   26 ar
  44   25   42 1
  45   26   27 ar
  46   26   43 1
  47   27   28 ar
  48   27   44 1
  49   28   45 1
  50   29   46 1
  51   31   47 1

#	End of record

