#	Name: ASD01918002
#	Creating user name:	WinNT
#	Creation time:	15. 06. 2019 20:10

#	Modifying user name:	WinNT
#	Modification time:	15. 06. 2019 20:10

#	Program:	/corina/corina34_cracker 3.40 0067  02.08.2006

@<TRIPOS>MOLECULE
ASD01918002
  42   45    0    0    0
SMALL
NO_CHARGES


@<TRIPOS>ATOM
   1 N1             4.8287    -0.3978    -2.1617 N.ar    
   2 C2             5.2941     0.3013    -3.1776 C.ar    
   3 C3             5.1783     1.6842    -3.2014 C.ar    
   4 C4             4.5623     2.3297    -2.1357 C.ar    
   5 C5             4.0845     1.5566    -1.0830 C.ar    
   6 C6             4.2385     0.1784    -1.1333 C.ar    
   7 O7             3.4755     2.1431    -0.0192 O.3     
   8 C8             3.4522     3.5022     0.0341 C.2     
   9 N9             2.1943     5.5143    -0.0255 N.pl3   
  10 C10            2.2687     4.1539    -0.0730 C.2     
  11 C11            4.6514     4.2063     0.2046 C.2     
  12 C12            4.6224     5.5943     0.2584 C.2     
  13 C13            3.3275     6.2689     0.1334 C.2     
  14 C14            5.8616     6.3681     0.4370 C.2     
  15 N15            5.8144     7.7141     0.4869 N.am    
  16 C16            6.9837     8.4442     0.6553 C.2     
  17 O17            6.9285     5.7927     0.5395 O.2     
  18 C18            1.1430     6.3883    -0.1086 C.2     
  19 C19            1.6523     7.6345    -0.0078 C.2     
  20 N20            2.9775     7.5423     0.1447 N.2     
  21 O21            5.6613     2.3977    -4.2525 O.3     
  22 C22            6.2809     1.6596    -5.3076 C.3     
  23 S23            8.5463     7.7683     0.8118 S.3     
  24 C24            9.2403     9.3807     0.9609 C.2     
  25 C25            8.2468    10.2679     0.8804 C.2     
  26 N26            7.0499     9.7378     0.7113 N.2     
  27 C27            8.4738    11.7551     0.9692 C.3     
  28 H28            5.7717    -0.2082    -4.0014 H       
  29 H29            4.4577     3.4045    -2.1252 H       
  30 H30            3.8704    -0.4295    -0.3201 H       
  31 H31            1.3618     3.5812    -0.1996 H       
  32 H32            5.5880     3.6760     0.2936 H       
  33 H33            4.9636     8.1729     0.4051 H       
  34 H34            0.1025     6.1293    -0.2374 H       
  35 H35            1.0835     8.5521    -0.0367 H       
  36 H36            6.6213     2.3478    -6.0813 H       
  37 H37            7.1332     1.1068    -4.9125 H       
  38 H38            5.5609     0.9611    -5.7339 H       
  39 H39           10.2870     9.6109     1.0944 H       
  40 H40            8.6490    12.1561    -0.0291 H       
  41 H41            7.5947    12.2316     1.4030 H       
  42 H42            9.3419    11.9533     1.5978 H       
@<TRIPOS>BOND
   1    1    2 ar
   2    1    6 ar
   3    2    3 ar
   4    2   28 1
   5    3    4 ar
   6    3   21 1
   7    4    5 ar
   8    4   29 1
   9    5    6 ar
  10    5    7 1
  11    6   30 1
  12    7    8 1
  13    8   11 1
  14    8   10 2
  15    9   10 1
  16    9   18 1
  17    9   13 1
  18   10   31 1
  19   11   12 2
  20   11   32 1
  21   12   13 1
  22   12   14 1
  23   13   20 2
  24   14   15 am
  25   14   17 2
  26   15   16 1
  27   15   33 1
  28   16   23 1
  29   16   26 2
  30   18   19 2
  31   18   34 1
  32   19   20 1
  33   19   35 1
  34   21   22 1
  35   22   36 1
  36   22   37 1
  37   22   38 1
  38   23   24 1
  39   24   25 2
  40   24   39 1
  41   25   26 1
  42   25   27 1
  43   27   40 1
  44   27   41 1
  45   27   42 1

#	End of record

