#	Name: ASD03331415
#	Creating user name:	WinNT
#	Creation time:	15. 06. 2019 20:39

#	Modifying user name:	WinNT
#	Modification time:	15. 06. 2019 20:39

#	Program:	/corina/corina34_cracker 3.40 0067  02.08.2006

@<TRIPOS>MOLECULE
ASD03331415
  68   72    0    0    0
SMALL
NO_CHARGES


@<TRIPOS>ATOM
   1 N1            -0.5847     1.8545    -1.1434 N.am    
   2 C2            -0.3485     0.4250    -1.3869 C.3     
   3 C3            -0.7945     0.0875    -2.8131 C.3     
   4 C4            -0.0850     1.0187    -3.7989 C.3     
   5 C5            -0.4724     2.4692    -3.5022 C.3     
   6 C6            -0.0228     2.8336    -2.0838 C.3     
   7 C7             1.4066     0.8582    -3.6564 C.2     
   8 O8             2.1051     1.8301    -3.4606 O.2     
   9 N9             1.9644    -0.3654    -3.7466 N.am    
  10 C10           -1.3077     2.2597    -0.0806 C.2     
  11 O11           -1.8517     1.4391     0.6334 O.2     
  12 N12           -2.2968     5.6696     0.7395 N.pl3   
  13 C13           -2.6007     4.3632     0.5421 C.2     
  14 C14           -1.4391     3.6965     0.2162 C.2     
  15 C15           -0.3936     4.6562     0.2207 C.2     
  16 C16           -0.9479     5.8525     0.5439 C.2     
  17 C17           -3.9710     3.7469     0.6586 C.3     
  18 C18           -4.6736     3.8051    -0.6993 C.3     
  19 O19           -5.9729     3.2207    -0.5887 O.3     
  20 C20           -0.2234     7.1359     0.6655 C.ar    
  21 C21            0.9384     7.2149     1.4369 C.ar    
  22 C22            1.6103     8.4159     1.5459 C.ar    
  23 C23            1.1343     9.5401     0.8924 C.ar    
  24 C24           -0.0170     9.4673     0.1269 C.ar    
  25 C25           -0.6942     8.2713     0.0056 C.ar    
  26 Cl26           1.9844    11.0470     1.0340 Cl      
  27 Cl27           1.5357     5.8063     2.2570 Cl      
  28 C28           -3.2119     6.6741     1.0824 C.ar    
  29 C29           -3.1578     7.2651     2.3376 C.ar    
  30 C30           -4.0604     8.2552     2.6729 C.ar    
  31 C31           -5.0182     8.6583     1.7590 C.ar    
  32 C32           -5.0744     8.0705     0.5074 C.ar    
  33 C33           -4.1704     7.0841     0.1653 C.ar    
  34 Cl34          -6.1514     9.9031     2.1835 Cl      
  35 C35           -0.4954     0.6672    -5.2057 C.ar    
  36 C36           -0.0508     1.4334    -6.2670 C.ar    
  37 C37           -0.4268     1.1115    -7.5575 C.ar    
  38 C38           -1.2484     0.0223    -7.7870 C.ar    
  39 C39           -1.6931    -0.7441    -6.7244 C.ar    
  40 C40           -1.3118    -0.4246    -5.4349 C.ar    
  41 Cl41          -1.7216    -0.3823    -9.4075 Cl      
  42 H42            0.7133     0.2057    -1.2746 H       
  43 H43           -0.9234    -0.1669    -0.6747 H       
  44 H44           -0.5365    -0.9469    -3.0398 H       
  45 H45           -1.8729     0.2211    -2.8983 H       
  46 H46            0.0148     3.1299    -4.2193 H       
  47 H47           -1.5539     2.5803    -3.5808 H       
  48 H48           -0.3828     3.8310    -1.8313 H       
  49 H49            1.0655     2.8108    -2.0282 H       
  50 H50            1.4161    -1.1329    -3.9731 H       
  51 H51            2.9141    -0.4786    -3.5851 H       
  52 H52            0.6484     4.4697     0.0066 H       
  53 H53           -3.8764     2.7080     0.9745 H       
  54 H54           -4.5561     4.2986     1.3944 H       
  55 H55           -4.7682     4.8440    -1.0152 H       
  56 H56           -4.0884     3.2535    -1.4351 H       
  57 H57           -6.4768     3.2232    -1.4141 H       
  58 H58            2.5085     8.4788     2.1422 H       
  59 H59           -0.3834    10.3478    -0.3800 H       
  60 H60           -1.5895     8.2152    -0.5959 H       
  61 H61           -2.4108     6.9505     3.0513 H       
  62 H62           -4.0190     8.7149     3.6493 H       
  63 H63           -5.8230     8.3866    -0.2040 H       
  64 H64           -4.2116     6.6290    -0.8133 H       
  65 H65            0.5903     2.2838    -6.0877 H       
  66 H66           -0.0797     1.7104    -8.3865 H       
  67 H67           -2.3345    -1.5945    -6.9030 H       
  68 H68           -1.6553    -1.0254    -4.6058 H       
@<TRIPOS>BOND
   1    1    2 1
   2    1    6 1
   3    1   10 am
   4    2    3 1
   5    2   42 1
   6    2   43 1
   7    3    4 1
   8    3   44 1
   9    3   45 1
  10    4    5 1
  11    4    7 1
  12    4   35 1
  13    5    6 1
  14    5   46 1
  15    5   47 1
  16    6   48 1
  17    6   49 1
  18    7    8 2
  19    7    9 am
  20    9   50 1
  21    9   51 1
  22   10   11 2
  23   10   14 1
  24   12   13 1
  25   12   16 1
  26   12   28 1
  27   13   14 2
  28   13   17 1
  29   14   15 1
  30   15   16 2
  31   15   52 1
  32   16   20 1
  33   17   18 1
  34   17   53 1
  35   17   54 1
  36   18   19 1
  37   18   55 1
  38   18   56 1
  39   19   57 1
  40   20   21 ar
  41   20   25 ar
  42   21   22 ar
  43   21   27 1
  44   22   23 ar
  45   22   58 1
  46   23   24 ar
  47   23   26 1
  48   24   25 ar
  49   24   59 1
  50   25   60 1
  51   28   29 ar
  52   28   33 ar
  53   29   30 ar
  54   29   61 1
  55   30   31 ar
  56   30   62 1
  57   31   32 ar
  58   31   34 1
  59   32   33 ar
  60   32   63 1
  61   33   64 1
  62   35   36 ar
  63   35   40 ar
  64   36   37 ar
  65   36   65 1
  66   37   38 ar
  67   37   66 1
  68   38   39 ar
  69   38   41 1
  70   39   40 ar
  71   39   67 1
  72   40   68 1

#	End of record

