#	Name: ASD01510093
#	Creating user name:	WinNT
#	Creation time:	15. 06. 2019 19:21

#	Modifying user name:	WinNT
#	Modification time:	15. 06. 2019 19:21

#	Program:	/corina/corina34_cracker 3.40 0067  02.08.2006

@<TRIPOS>MOLECULE
ASD01510093
  55   57    0    0    0
SMALL
NO_CHARGES


@<TRIPOS>ATOM
   1 N1             0.2525     0.8675     1.6380 N.3     
   2 C2             0.1281    -0.2843     0.7347 C.3     
   3 C3            -1.2895    -0.7948     0.7639 C.2     
   4 O4            -2.1149    -0.2525     1.4679 O.2     
   5 N5            -1.6400    -1.8540     0.0078 N.am    
   6 C6            -2.9292    -2.3888     0.1075 C.ar    
   7 C7            -4.0150    -1.5500     0.3255 C.ar    
   8 C8            -5.2889    -2.0768     0.4242 C.ar    
   9 C9            -5.4875    -3.4383     0.3062 C.ar    
  10 C10           -4.4052    -4.2839     0.0880 C.ar    
  11 C11           -3.1249    -3.7566    -0.0169 C.ar    
  12 S12           -4.6588    -6.0211    -0.0615 S.3     
  13 C13           -6.4025    -6.1852     0.1320 C.ar    
  14 C14           -7.2526    -6.1291    -0.9726 C.ar    
  15 O15           -6.7496    -5.9472    -2.2190 O.3     
  16 C16           -7.6870    -5.9013    -3.2966 C.3     
  17 N17           -8.5621    -6.2569    -0.7866 N.ar    
  18 C18           -9.0613    -6.4352     0.4269 C.ar    
  19 N19           -8.2863    -6.4937     1.4990 N.ar    
  20 C20           -6.9666    -6.3801     1.3928 C.ar    
  21 O21           -6.1800    -6.4415     2.4960 O.3     
  22 C22           -6.8364    -6.6312     3.7511 C.3     
  23 N23          -10.4334    -6.5638     0.5792 N.3     
  24 C24          -10.7910    -6.7533     1.9919 C.3     
  25 C25          -12.3145    -6.8111     2.1264 C.3     
  26 N26          -12.8351    -7.9108     1.3022 N.3     
  27 C27          -12.4775    -7.7213    -0.1105 C.3     
  28 C28          -10.9540    -7.6636    -0.2450 C.3     
  29 C29          -14.2888    -8.0470     1.4635 C.3     
  30 H30            1.1947     1.2284     1.6361 H       
  31 H31           -0.4113     1.5885     1.3980 H       
  32 H32            0.3836     0.0206    -0.2801 H       
  33 H33            0.8056    -1.0745     1.0582 H       
  34 H34           -0.9986    -2.2455    -0.6056 H       
  35 H35           -3.8633    -0.4847     0.4183 H       
  36 H36           -6.1309    -1.4223     0.5944 H       
  37 H37           -6.4843    -3.8469     0.3838 H       
  38 H38           -2.2823    -4.4107    -0.1863 H       
  39 H39           -8.2394    -6.8400    -3.3378 H       
  40 H40           -8.3825    -5.0771    -3.1383 H       
  41 H41           -7.1541    -5.7517    -4.2356 H       
  42 H42           -7.5262    -5.8061     3.9287 H       
  43 H43           -7.3900    -7.5701     3.7333 H       
  44 H44           -6.0939    -6.6622     4.5484 H       
  45 H45          -10.3584    -7.6857     2.3547 H       
  46 H46          -10.4054    -5.9202     2.5795 H       
  47 H47          -12.5814    -6.9806     3.1695 H       
  48 H48          -12.7454    -5.8684     1.7890 H       
  49 H49          -12.8631    -8.5544    -0.6982 H       
  50 H50          -12.9101    -6.7890    -0.4733 H       
  51 H51          -10.6871    -7.4941    -1.2881 H       
  52 H52          -10.5231    -8.6063     0.0924 H       
  53 H53          -14.7766    -7.1210     1.1591 H       
  54 H54          -14.6479    -8.8679     0.8428 H       
  55 H55          -14.5207    -8.2533     2.5084 H       
@<TRIPOS>BOND
   1    1    2 1
   2    1   30 1
   3    1   31 1
   4    2    3 1
   5    2   32 1
   6    2   33 1
   7    3    4 2
   8    3    5 am
   9    5    6 1
  10    5   34 1
  11    6    7 ar
  12    6   11 ar
  13    7    8 ar
  14    7   35 1
  15    8    9 ar
  16    8   36 1
  17    9   10 ar
  18    9   37 1
  19   10   11 ar
  20   10   12 1
  21   11   38 1
  22   12   13 1
  23   13   14 ar
  24   13   20 ar
  25   14   15 1
  26   14   17 ar
  27   15   16 1
  28   16   39 1
  29   16   40 1
  30   16   41 1
  31   17   18 ar
  32   18   19 ar
  33   18   23 1
  34   19   20 ar
  35   20   21 1
  36   21   22 1
  37   22   42 1
  38   22   43 1
  39   22   44 1
  40   23   24 1
  41   23   28 1
  42   24   25 1
  43   24   45 1
  44   24   46 1
  45   25   26 1
  46   25   47 1
  47   25   48 1
  48   26   27 1
  49   26   29 1
  50   27   28 1
  51   27   49 1
  52   27   50 1
  53   28   51 1
  54   28   52 1
  55   29   53 1
  56   29   54 1
  57   29   55 1

#	End of record

