#	Name: ASD01812155
#	Creating user name:	WinNT
#	Creation time:	15. 06. 2019 19:28

#	Modifying user name:	WinNT
#	Modification time:	15. 06. 2019 19:28

#	Program:	/corina/corina34_cracker 3.40 0067  02.08.2006

@<TRIPOS>MOLECULE
ASD01812155
  58   62    0    0    0
SMALL
NO_CHARGES


@<TRIPOS>ATOM
   1 C1            -0.0426     1.3522     0.2279 C.ar    
   2 C2            -0.0100    -0.0407     0.2231 C.ar    
   3 C3             1.1704    -0.7143     0.1374 C.ar    
   4 C4             2.3757     0.0007     0.0519 C.ar    
   5 C5             2.3432     1.4197     0.0563 C.ar    
   6 C6             1.1048     2.0797     0.1466 C.ar    
   7 C7             3.6123    -0.6641    -0.0383 C.ar    
   8 C8             4.7651     0.0463    -0.1205 C.ar    
   9 C9             4.7494     1.4550    -0.1169 C.ar    
  10 C10            3.5438     2.1329    -0.0294 C.ar    
  11 C11            3.6565    -2.1704    -0.0431 C.3     
  12 C12            5.8366     2.4507    -0.1935 C.2     
  13 N13            5.3327     3.6961    -0.1551 N.am    
  14 C14            3.8719     3.6046    -0.0504 C.3     
  15 O15            7.0192     2.1824    -0.2788 O.2     
  16 C16            6.1109     4.9362    -0.2090 C.3     
  17 C17            6.9004     4.9863    -1.5186 C.3     
  18 C18            7.7131     6.2814    -1.5749 C.3     
  19 C19            8.6831     6.3267    -0.3925 C.3     
  20 C20            7.8935     6.2766     0.9171 C.3     
  21 C21            7.0808     4.9814     0.9734 C.3     
  22 O22            5.9945     4.9440    -2.6229 O.3     
  23 N23            3.4387    -2.6710     1.3207 N.3     
  24 C24            4.7128    -3.6812     3.1239 C.3     
  25 C25            3.4896    -4.5576     2.7693 C.3     
  26 C26            3.1681    -4.1315     1.3148 C.3     
  27 C27            4.6483    -2.4885     2.1519 C.3     
  28 C28            3.8516    -6.0428     2.8309 C.3     
  29 F29            4.1375    -6.3986     4.1534 F       
  30 H30           -0.9925     1.8620     0.2926 H       
  31 H31           -0.9349    -0.5945     0.2887 H       
  32 H32            1.1794    -1.7943     0.1355 H       
  33 H33            1.0643     3.1590     0.1508 H       
  34 H34            5.7082    -0.4754    -0.1893 H       
  35 H35            2.8764    -2.5547    -0.7001 H       
  36 H36            4.6303    -2.5042    -0.4014 H       
  37 H37            3.4038     4.0808    -0.9118 H       
  38 H38            3.5318     4.0776     0.8709 H       
  39 H39            5.4363     5.7909    -0.1585 H       
  40 H40            7.5750     4.1316    -1.5691 H       
  41 H41            8.2756     6.3171    -2.5078 H       
  42 H42            7.0385     7.1361    -1.5244 H       
  43 H43            9.3576     5.4720    -0.4430 H       
  44 H44            9.2620     7.2493    -0.4326 H       
  45 H45            8.5845     6.3088     1.7594 H       
  46 H46            7.2189     7.1313     0.9676 H       
  47 H47            6.5183     4.9457     1.9064 H       
  48 H48            7.7554     4.1267     0.9229 H       
  49 H49            6.4267     4.9723    -3.4875 H       
  50 H50            4.6431    -3.3335     4.1545 H       
  51 H51            5.6357    -4.2415     2.9744 H       
  52 H52            2.6517    -4.3359     3.4303 H       
  53 H53            2.1223    -4.3280     1.0786 H       
  54 H54            3.8251    -4.6416     0.6103 H       
  55 H55            5.5356    -2.4770     1.5188 H       
  56 H56            4.5766    -1.5563     2.7122 H       
  57 H57            3.0126    -6.6366     2.4682 H       
  58 H58            4.7258    -6.2299     2.2073 H       
@<TRIPOS>BOND
   1    1    2 ar
   2    1    6 ar
   3    1   30 1
   4    2    3 ar
   5    2   31 1
   6    3    4 ar
   7    3   32 1
   8    4    5 ar
   9    4    7 ar
  10    5    6 ar
  11    5   10 ar
  12    6   33 1
  13    7    8 ar
  14    7   11 1
  15    8    9 ar
  16    8   34 1
  17    9   10 ar
  18    9   12 1
  19   10   14 1
  20   11   23 1
  21   11   35 1
  22   11   36 1
  23   12   13 am
  24   12   15 2
  25   13   14 1
  26   13   16 1
  27   14   37 1
  28   14   38 1
  29   16   17 1
  30   16   21 1
  31   16   39 1
  32   17   18 1
  33   17   22 1
  34   17   40 1
  35   18   19 1
  36   18   41 1
  37   18   42 1
  38   19   20 1
  39   19   43 1
  40   19   44 1
  41   20   21 1
  42   20   45 1
  43   20   46 1
  44   21   47 1
  45   21   48 1
  46   22   49 1
  47   23   27 1
  48   23   26 1
  49   24   25 1
  50   24   27 1
  51   24   50 1
  52   24   51 1
  53   25   26 1
  54   25   28 1
  55   25   52 1
  56   26   53 1
  57   26   54 1
  58   27   55 1
  59   27   56 1
  60   28   29 1
  61   28   57 1
  62   28   58 1

#	End of record

