#	Name: ASD00060021
#	Creating user name:	WinNT
#	Creation time:	15. 06. 2019 18:29

#	Modifying user name:	WinNT
#	Modification time:	15. 06. 2019 18:29

#	Program:	/corina/corina34_cracker 3.40 0067  02.08.2006

@<TRIPOS>MOLECULE
ASD00060021
  36   38    0    0    0
SMALL
NO_CHARGES


@<TRIPOS>ATOM
   1 C1            -0.1100     1.4202    -0.0106 C.2     
   2 C2            -0.2526     0.0822     0.0868 C.2     
   3 C3            -1.5814    -0.5001     0.2698 C.2     
   4 O4            -1.7463    -1.8376     0.2072 O.3     
   5 O5            -2.5381     0.2214     0.4785 O.2     
   6 C6             1.1101     2.2130     0.3912 C.3     
   7 C7             0.7638     3.6758     0.0815 C.3     
   8 C8            -0.6361     3.6697    -0.4841 C.ar    
   9 C9            -1.1150     2.3608    -0.5332 C.ar    
  10 C10           -1.4302     4.7111    -0.9257 C.ar    
  11 C11           -2.7012     4.4630    -1.4107 C.ar    
  12 C12           -3.1880     3.1680    -1.4576 C.ar    
  13 C13           -2.4062     2.1190    -1.0281 C.ar    
  14 C14            1.3871     2.0387     1.8858 C.3     
  15 C15            2.6526     2.7710     2.2509 C.ar    
  16 C16            2.5847     4.0466     2.7794 C.ar    
  17 C17            3.7450     4.7187     3.1145 C.ar    
  18 C18            4.9745     4.1146     2.9209 C.ar    
  19 C19            5.0418     2.8380     2.3920 C.ar    
  20 C20            3.8806     2.1647     2.0625 C.ar    
  21 Cl21           6.4323     4.9584     3.3410 Cl      
  22 H22            0.6147    -0.5589     0.0296 H       
  23 H23           -2.6590    -2.1281     0.3403 H       
  24 H24            1.9746     1.8977    -0.1931 H       
  25 H25            0.7959     4.2696     0.9951 H       
  26 H26            1.4622     4.0787    -0.6520 H       
  27 H27           -1.0564     5.7237    -0.8914 H       
  28 H28           -3.3160     5.2820    -1.7536 H       
  29 H29           -4.1813     2.9794    -1.8372 H       
  30 H30           -2.7891     1.1099    -1.0664 H       
  31 H31            0.5539     2.4447     2.4594 H       
  32 H32            1.5022     0.9788     2.1128 H       
  33 H33            1.6249     4.5182     2.9302 H       
  34 H34            3.6919     5.7154     3.5270 H       
  35 H35            6.0013     2.3659     2.2406 H       
  36 H36            3.9329     1.1681     1.6496 H       
@<TRIPOS>BOND
   1    1    2 2
   2    1    6 1
   3    1    9 1
   4    2    3 1
   5    2   22 1
   6    3    4 1
   7    3    5 2
   8    4   23 1
   9    6    7 1
  10    6   14 1
  11    6   24 1
  12    7    8 1
  13    7   25 1
  14    7   26 1
  15    8    9 ar
  16    8   10 ar
  17    9   13 ar
  18   10   11 ar
  19   10   27 1
  20   11   12 ar
  21   11   28 1
  22   12   13 ar
  23   12   29 1
  24   13   30 1
  25   14   15 1
  26   14   31 1
  27   14   32 1
  28   15   16 ar
  29   15   20 ar
  30   16   17 ar
  31   16   33 1
  32   17   18 ar
  33   17   34 1
  34   18   19 ar
  35   18   21 1
  36   19   20 ar
  37   19   35 1
  38   20   36 1

#	End of record

