#	Name: ASD01911643
#	Creating user name:	WinNT
#	Creation time:	15. 06. 2019 19:58

#	Modifying user name:	WinNT
#	Modification time:	15. 06. 2019 19:58

#	Program:	/corina/corina34_cracker 3.40 0067  02.08.2006

@<TRIPOS>MOLECULE
ASD01911643
  51   54    0    0    0
SMALL
NO_CHARGES


@<TRIPOS>ATOM
   1 C1             0.5762     1.1338    -2.0184 C.ar    
   2 C2             0.5883    -0.2204    -1.7342 C.ar    
   3 C3             1.2737    -0.6695    -0.6084 C.ar    
   4 N4             1.9057     0.1851     0.1805 N.ar    
   5 C5             1.9108     1.4816    -0.0665 C.ar    
   6 C6             1.2520     1.9961    -1.1647 C.ar    
   7 Cl7           -0.2401    -1.3437    -2.7665 Cl      
   8 N8             1.2941    -2.0276    -0.3101 N.3     
   9 C9             2.6567    -2.5677    -0.4076 C.3     
  10 C10            0.7127    -2.2845     1.0143 C.3     
  11 C11            0.5874    -3.7966     1.2290 C.3     
  12 N12            1.9031    -4.4119     0.9974 N.am    
  13 C13            2.6112    -4.0914    -0.2512 C.3     
  14 C14            2.4453    -5.2477     1.9052 C.2     
  15 O15            3.4846    -5.8263     1.6542 O.2     
  16 N16            1.8353    -5.4420     3.0912 N.am    
  17 C17            2.4441    -6.2179     4.0646 C.2     
  18 S18            1.7644    -6.5534     5.6508 S.3     
  19 C19            3.1755    -7.5239     6.0654 C.ar    
  20 C20            4.0500    -7.5196     4.9751 C.ar    
  21 N21            3.5849    -6.7996     3.9333 N.2     
  22 C22            3.4971    -8.2247     7.2255 C.ar    
  23 C23            4.6861    -8.9227     7.3074 C.ar    
  24 C24            5.5641    -8.9251     6.2277 C.ar    
  25 C25            5.2595    -8.2388     5.0801 C.ar    
  26 C26            4.0363    -4.6447    -0.1905 C.3     
  27 O27            4.9984    -9.6058     8.4410 O.3     
  28 C28            6.2446   -10.3049     8.4546 C.3     
  29 C29            6.4202   -11.0082     9.8020 C.3     
  30 H30            0.0568     1.5112    -2.8868 H       
  31 H31            2.4371     2.1489     0.5999 H       
  32 H32            1.2622     3.0585    -1.3585 H       
  33 H33            3.0797    -2.3143    -1.3798 H       
  34 H34            3.2751    -2.1394     0.3813 H       
  35 H35            1.3581    -1.8601     1.7834 H       
  36 H36           -0.2743    -1.8257     1.0734 H       
  37 H37            0.2648    -3.9958     2.2509 H       
  38 H38           -0.1377    -4.2073     0.5264 H       
  39 H39            2.0806    -4.5305    -1.0961 H       
  40 H40            0.9701    -5.0386     3.2634 H       
  41 H41            2.8153    -8.2220     8.0631 H       
  42 H42            6.4932    -9.4717     6.2943 H       
  43 H43            5.9505    -8.2492     4.2502 H       
  44 H44            4.0044    -5.7340    -0.2117 H       
  45 H45            4.6040    -4.2811    -1.0470 H       
  46 H46            4.5159    -4.3131     0.7305 H       
  47 H47            6.2548   -11.0450     7.6544 H       
  48 H48            7.0599    -9.5971     8.3052 H       
  49 H49            5.6049   -11.7160     9.9514 H       
  50 H50            7.3708   -11.5414     9.8124 H       
  51 H51            6.4100   -10.2681    10.6021 H       
@<TRIPOS>BOND
   1    1    2 ar
   2    1    6 ar
   3    1   30 1
   4    2    3 ar
   5    2    7 1
   6    3    4 ar
   7    3    8 1
   8    4    5 ar
   9    5    6 ar
  10    5   31 1
  11    6   32 1
  12    8    9 1
  13    8   10 1
  14    9   13 1
  15    9   33 1
  16    9   34 1
  17   10   11 1
  18   10   35 1
  19   10   36 1
  20   11   12 1
  21   11   37 1
  22   11   38 1
  23   12   13 1
  24   12   14 am
  25   13   26 1
  26   13   39 1
  27   14   15 2
  28   14   16 am
  29   16   17 1
  30   16   40 1
  31   17   18 1
  32   17   21 2
  33   18   19 1
  34   19   20 ar
  35   19   22 ar
  36   20   21 1
  37   20   25 ar
  38   22   23 ar
  39   22   41 1
  40   23   24 ar
  41   23   27 1
  42   24   25 ar
  43   24   42 1
  44   25   43 1
  45   26   44 1
  46   26   45 1
  47   26   46 1
  48   27   28 1
  49   28   29 1
  50   28   47 1
  51   28   48 1
  52   29   49 1
  53   29   50 1
  54   29   51 1

#	End of record

